gem5 Simulator System.  http://gem5.org
gem5 is copyrighted software; use the --copyright option for details.

gem5 compiled Jun 23 2017 18:26:40
gem5 started Jun 23 2017 20:41:44
gem5 executing on duanxg
command line: ./build/ARM/gem5.debug --debug-flags=Event configs/gem5_hw/simple.py

Global frequency set at 1000000000000 ticks per second
      0: Event_43: AtomicSimpleCPU tick event scheduled @ 0
Beginning simulation!
      0: Event_51: generic event scheduled @ 0
info: Entering event queue @ 0.  Starting simulation...
      0: Event_51: generic event rescheduled @ 18446744073709551615
      0: Event_43: AtomicSimpleCPU tick event scheduled @ 1000000
1000000: Event_43: AtomicSimpleCPU tick event scheduled @ 2000000
2000000: Event_43: AtomicSimpleCPU tick event scheduled @ 3000000
3000000: Event_43: AtomicSimpleCPU tick event scheduled @ 4000000
4000000: Event_43: AtomicSimpleCPU tick event scheduled @ 5000000
5000000: Event_43: AtomicSimpleCPU tick event scheduled @ 6000000
6000000: Event_43: AtomicSimpleCPU tick event scheduled @ 7000000
7000000: Event_43: AtomicSimpleCPU tick event scheduled @ 8000000
8000000: Event_43: AtomicSimpleCPU tick event scheduled @ 9000000
9000000: Event_43: AtomicSimpleCPU tick event scheduled @ 10000000
10000000: Event_43: AtomicSimpleCPU tick event scheduled @ 11000000
11000000: Event_43: AtomicSimpleCPU tick event scheduled @ 12000000
12000000: Event_43: AtomicSimpleCPU tick event scheduled @ 13000000
13000000: Event_43: AtomicSimpleCPU tick event scheduled @ 14000000
14000000: Event_43: AtomicSimpleCPU tick event scheduled @ 15000000
15000000: Event_43: AtomicSimpleCPU tick event scheduled @ 16000000
16000000: Event_43: AtomicSimpleCPU tick event scheduled @ 17000000
17000000: Event_43: AtomicSimpleCPU tick event scheduled @ 18000000
18000000: Event_43: AtomicSimpleCPU tick event scheduled @ 19000000
19000000: Event_43: AtomicSimpleCPU tick event scheduled @ 20000000
20000000: Event_43: AtomicSimpleCPU tick event scheduled @ 21000000
21000000: Event_43: AtomicSimpleCPU tick event scheduled @ 22000000
22000000: Event_43: AtomicSimpleCPU tick event scheduled @ 23000000
23000000: Event_43: AtomicSimpleCPU tick event scheduled @ 24000000
24000000: Event_43: AtomicSimpleCPU tick event scheduled @ 25000000
25000000: Event_43: AtomicSimpleCPU tick event scheduled @ 26000000
26000000: Event_43: AtomicSimpleCPU tick event scheduled @ 27000000
27000000: Event_43: AtomicSimpleCPU tick event scheduled @ 28000000
28000000: Event_43: AtomicSimpleCPU tick event scheduled @ 29000000
29000000: Event_43: AtomicSimpleCPU tick event scheduled @ 30000000
30000000: Event_43: AtomicSimpleCPU tick event scheduled @ 31000000
31000000: Event_43: AtomicSimpleCPU tick event scheduled @ 32000000
32000000: Event_43: AtomicSimpleCPU tick event scheduled @ 33000000
33000000: Event_43: AtomicSimpleCPU tick event scheduled @ 34000000
34000000: Event_43: AtomicSimpleCPU tick event scheduled @ 35000000
35000000: Event_43: AtomicSimpleCPU tick event scheduled @ 36000000
36000000: Event_43: AtomicSimpleCPU tick event scheduled @ 37000000
37000000: Event_43: AtomicSimpleCPU tick event scheduled @ 38000000
38000000: Event_43: AtomicSimpleCPU tick event scheduled @ 39000000
39000000: Event_43: AtomicSimpleCPU tick event scheduled @ 40000000
40000000: Event_43: AtomicSimpleCPU tick event scheduled @ 41000000
41000000: Event_43: AtomicSimpleCPU tick event scheduled @ 42000000
42000000: Event_43: AtomicSimpleCPU tick event scheduled @ 43000000
43000000: Event_43: AtomicSimpleCPU tick event scheduled @ 44000000
44000000: Event_43: AtomicSimpleCPU tick event scheduled @ 45000000
45000000: Event_43: AtomicSimpleCPU tick event scheduled @ 46000000
46000000: Event_43: AtomicSimpleCPU tick event scheduled @ 47000000
47000000: Event_43: AtomicSimpleCPU tick event scheduled @ 48000000
48000000: Event_43: AtomicSimpleCPU tick event scheduled @ 49000000
49000000: Event_43: AtomicSimpleCPU tick event scheduled @ 50000000
50000000: Event_43: AtomicSimpleCPU tick event scheduled @ 51000000
51000000: Event_43: AtomicSimpleCPU tick event scheduled @ 52000000
52000000: Event_43: AtomicSimpleCPU tick event scheduled @ 53000000
53000000: Event_43: AtomicSimpleCPU tick event scheduled @ 54000000
54000000: Event_43: AtomicSimpleCPU tick event scheduled @ 55000000
55000000: Event_43: AtomicSimpleCPU tick event scheduled @ 56000000
56000000: Event_43: AtomicSimpleCPU tick event scheduled @ 57000000
57000000: Event_43: AtomicSimpleCPU tick event scheduled @ 58000000
58000000: Event_43: AtomicSimpleCPU tick event scheduled @ 59000000
59000000: Event_43: AtomicSimpleCPU tick event scheduled @ 60000000
60000000: Event_43: AtomicSimpleCPU tick event scheduled @ 61000000
61000000: Event_43: AtomicSimpleCPU tick event scheduled @ 62000000
62000000: Event_43: AtomicSimpleCPU tick event scheduled @ 63000000
63000000: Event_43: AtomicSimpleCPU tick event scheduled @ 64000000
64000000: Event_43: AtomicSimpleCPU tick event scheduled @ 65000000
65000000: Event_43: AtomicSimpleCPU tick event scheduled @ 66000000
66000000: Event_43: AtomicSimpleCPU tick event scheduled @ 67000000
67000000: Event_43: AtomicSimpleCPU tick event scheduled @ 68000000
68000000: Event_43: AtomicSimpleCPU tick event scheduled @ 69000000
69000000: Event_43: AtomicSimpleCPU tick event scheduled @ 70000000
70000000: Event_43: AtomicSimpleCPU tick event scheduled @ 71000000
71000000: Event_43: AtomicSimpleCPU tick event scheduled @ 72000000
72000000: Event_43: AtomicSimpleCPU tick event scheduled @ 73000000
73000000: Event_43: AtomicSimpleCPU tick event scheduled @ 74000000
74000000: Event_43: AtomicSimpleCPU tick event scheduled @ 75000000
75000000: Event_43: AtomicSimpleCPU tick event scheduled @ 76000000
76000000: Event_43: AtomicSimpleCPU tick event scheduled @ 77000000
77000000: Event_43: AtomicSimpleCPU tick event scheduled @ 78000000
78000000: Event_43: AtomicSimpleCPU tick event scheduled @ 79000000
79000000: Event_43: AtomicSimpleCPU tick event scheduled @ 80000000
80000000: Event_43: AtomicSimpleCPU tick event scheduled @ 81000000
81000000: Event_43: AtomicSimpleCPU tick event scheduled @ 82000000
82000000: Event_43: AtomicSimpleCPU tick event scheduled @ 83000000
83000000: Event_43: AtomicSimpleCPU tick event scheduled @ 84000000
84000000: Event_43: AtomicSimpleCPU tick event scheduled @ 85000000
85000000: Event_43: AtomicSimpleCPU tick event scheduled @ 86000000
86000000: Event_43: AtomicSimpleCPU tick event scheduled @ 87000000
87000000: Event_43: AtomicSimpleCPU tick event scheduled @ 88000000
88000000: Event_43: AtomicSimpleCPU tick event scheduled @ 89000000
89000000: Event_43: AtomicSimpleCPU tick event scheduled @ 90000000
90000000: Event_43: AtomicSimpleCPU tick event scheduled @ 91000000
91000000: Event_43: AtomicSimpleCPU tick event scheduled @ 92000000
92000000: Event_43: AtomicSimpleCPU tick event scheduled @ 93000000
93000000: Event_43: AtomicSimpleCPU tick event scheduled @ 94000000
94000000: Event_43: AtomicSimpleCPU tick event scheduled @ 95000000
95000000: Event_43: AtomicSimpleCPU tick event scheduled @ 96000000
96000000: Event_43: AtomicSimpleCPU tick event scheduled @ 97000000
97000000: Event_43: AtomicSimpleCPU tick event scheduled @ 98000000
98000000: Event_43: AtomicSimpleCPU tick event scheduled @ 99000000
99000000: Event_43: AtomicSimpleCPU tick event scheduled @ 100000000
100000000: Event_43: AtomicSimpleCPU tick event scheduled @ 101000000
101000000: Event_43: AtomicSimpleCPU tick event scheduled @ 102000000
102000000: Event_43: AtomicSimpleCPU tick event scheduled @ 103000000
103000000: Event_43: AtomicSimpleCPU tick event scheduled @ 104000000
104000000: Event_43: AtomicSimpleCPU tick event scheduled @ 105000000
105000000: Event_43: AtomicSimpleCPU tick event scheduled @ 106000000
106000000: Event_43: AtomicSimpleCPU tick event scheduled @ 107000000
107000000: Event_43: AtomicSimpleCPU tick event scheduled @ 108000000
108000000: Event_43: AtomicSimpleCPU tick event scheduled @ 109000000
109000000: Event_43: AtomicSimpleCPU tick event scheduled @ 110000000
110000000: Event_43: AtomicSimpleCPU tick event scheduled @ 111000000
111000000: Event_43: AtomicSimpleCPU tick event scheduled @ 112000000
112000000: Event_43: AtomicSimpleCPU tick event scheduled @ 113000000
113000000: Event_43: AtomicSimpleCPU tick event scheduled @ 114000000
114000000: Event_43: AtomicSimpleCPU tick event scheduled @ 115000000
115000000: Event_43: AtomicSimpleCPU tick event scheduled @ 116000000
116000000: Event_43: AtomicSimpleCPU tick event scheduled @ 117000000
117000000: Event_43: AtomicSimpleCPU tick event scheduled @ 118000000
118000000: Event_43: AtomicSimpleCPU tick event scheduled @ 119000000
119000000: Event_43: AtomicSimpleCPU tick event scheduled @ 120000000
120000000: Event_43: AtomicSimpleCPU tick event scheduled @ 121000000
121000000: Event_43: AtomicSimpleCPU tick event scheduled @ 122000000
122000000: Event_43: AtomicSimpleCPU tick event scheduled @ 123000000
123000000: Event_43: AtomicSimpleCPU tick event scheduled @ 124000000
124000000: Event_43: AtomicSimpleCPU tick event scheduled @ 125000000
125000000: Event_43: AtomicSimpleCPU tick event scheduled @ 126000000
126000000: Event_43: AtomicSimpleCPU tick event scheduled @ 127000000
127000000: Event_43: AtomicSimpleCPU tick event scheduled @ 128000000
128000000: Event_43: AtomicSimpleCPU tick event scheduled @ 129000000
129000000: Event_43: AtomicSimpleCPU tick event scheduled @ 130000000
130000000: Event_43: AtomicSimpleCPU tick event scheduled @ 131000000
131000000: Event_43: AtomicSimpleCPU tick event scheduled @ 132000000
132000000: Event_43: AtomicSimpleCPU tick event scheduled @ 133000000
133000000: Event_43: AtomicSimpleCPU tick event scheduled @ 134000000
134000000: Event_43: AtomicSimpleCPU tick event scheduled @ 135000000
135000000: Event_43: AtomicSimpleCPU tick event scheduled @ 136000000
136000000: Event_43: AtomicSimpleCPU tick event scheduled @ 137000000
137000000: Event_43: AtomicSimpleCPU tick event scheduled @ 138000000
138000000: Event_43: AtomicSimpleCPU tick event scheduled @ 139000000
139000000: Event_43: AtomicSimpleCPU tick event scheduled @ 140000000
140000000: Event_43: AtomicSimpleCPU tick event scheduled @ 141000000
141000000: Event_43: AtomicSimpleCPU tick event scheduled @ 142000000
142000000: Event_43: AtomicSimpleCPU tick event scheduled @ 143000000
143000000: Event_43: AtomicSimpleCPU tick event scheduled @ 144000000
144000000: Event_43: AtomicSimpleCPU tick event scheduled @ 145000000
145000000: Event_43: AtomicSimpleCPU tick event scheduled @ 146000000
146000000: Event_43: AtomicSimpleCPU tick event scheduled @ 147000000
147000000: Event_43: AtomicSimpleCPU tick event scheduled @ 148000000
148000000: Event_43: AtomicSimpleCPU tick event scheduled @ 149000000
149000000: Event_43: AtomicSimpleCPU tick event scheduled @ 150000000
150000000: Event_43: AtomicSimpleCPU tick event scheduled @ 151000000
151000000: Event_43: AtomicSimpleCPU tick event scheduled @ 152000000
152000000: Event_43: AtomicSimpleCPU tick event scheduled @ 153000000
153000000: Event_43: AtomicSimpleCPU tick event scheduled @ 154000000
154000000: Event_43: AtomicSimpleCPU tick event scheduled @ 155000000
155000000: Event_43: AtomicSimpleCPU tick event scheduled @ 156000000
156000000: Event_43: AtomicSimpleCPU tick event scheduled @ 157000000
157000000: Event_43: AtomicSimpleCPU tick event scheduled @ 158000000
158000000: Event_43: AtomicSimpleCPU tick event scheduled @ 159000000
159000000: Event_43: AtomicSimpleCPU tick event scheduled @ 160000000
160000000: Event_43: AtomicSimpleCPU tick event scheduled @ 161000000
161000000: Event_43: AtomicSimpleCPU tick event scheduled @ 162000000
162000000: Event_43: AtomicSimpleCPU tick event scheduled @ 163000000
163000000: Event_43: AtomicSimpleCPU tick event scheduled @ 164000000
164000000: Event_43: AtomicSimpleCPU tick event scheduled @ 165000000
165000000: Event_43: AtomicSimpleCPU tick event scheduled @ 166000000
166000000: Event_43: AtomicSimpleCPU tick event scheduled @ 167000000
167000000: Event_43: AtomicSimpleCPU tick event scheduled @ 168000000
168000000: Event_43: AtomicSimpleCPU tick event scheduled @ 169000000
169000000: Event_43: AtomicSimpleCPU tick event scheduled @ 170000000
170000000: Event_43: AtomicSimpleCPU tick event scheduled @ 171000000
171000000: Event_43: AtomicSimpleCPU tick event scheduled @ 172000000
172000000: Event_43: AtomicSimpleCPU tick event scheduled @ 173000000
173000000: Event_43: AtomicSimpleCPU tick event scheduled @ 174000000
174000000: Event_43: AtomicSimpleCPU tick event scheduled @ 175000000
175000000: Event_43: AtomicSimpleCPU tick event scheduled @ 176000000
176000000: Event_43: AtomicSimpleCPU tick event scheduled @ 177000000
177000000: Event_43: AtomicSimpleCPU tick event scheduled @ 178000000
178000000: Event_43: AtomicSimpleCPU tick event scheduled @ 179000000
179000000: Event_43: AtomicSimpleCPU tick event scheduled @ 180000000
180000000: Event_43: AtomicSimpleCPU tick event scheduled @ 181000000
181000000: Event_43: AtomicSimpleCPU tick event scheduled @ 182000000
182000000: Event_43: AtomicSimpleCPU tick event scheduled @ 183000000
183000000: Event_43: AtomicSimpleCPU tick event scheduled @ 184000000
184000000: Event_43: AtomicSimpleCPU tick event scheduled @ 185000000
185000000: Event_43: AtomicSimpleCPU tick event scheduled @ 186000000
186000000: Event_43: AtomicSimpleCPU tick event scheduled @ 187000000
187000000: Event_43: AtomicSimpleCPU tick event scheduled @ 188000000
188000000: Event_43: AtomicSimpleCPU tick event scheduled @ 189000000
189000000: Event_43: AtomicSimpleCPU tick event scheduled @ 190000000
190000000: Event_43: AtomicSimpleCPU tick event scheduled @ 191000000
191000000: Event_43: AtomicSimpleCPU tick event scheduled @ 192000000
192000000: Event_43: AtomicSimpleCPU tick event scheduled @ 193000000
193000000: Event_43: AtomicSimpleCPU tick event scheduled @ 194000000
194000000: Event_43: AtomicSimpleCPU tick event scheduled @ 195000000
195000000: Event_43: AtomicSimpleCPU tick event scheduled @ 196000000
196000000: Event_43: AtomicSimpleCPU tick event scheduled @ 197000000
197000000: Event_43: AtomicSimpleCPU tick event scheduled @ 198000000
198000000: Event_43: AtomicSimpleCPU tick event scheduled @ 199000000
199000000: Event_43: AtomicSimpleCPU tick event scheduled @ 200000000
200000000: Event_43: AtomicSimpleCPU tick event scheduled @ 201000000
201000000: Event_43: AtomicSimpleCPU tick event scheduled @ 202000000
202000000: Event_43: AtomicSimpleCPU tick event scheduled @ 203000000
203000000: Event_43: AtomicSimpleCPU tick event scheduled @ 204000000
204000000: Event_43: AtomicSimpleCPU tick event scheduled @ 205000000
205000000: Event_43: AtomicSimpleCPU tick event scheduled @ 206000000
206000000: Event_43: AtomicSimpleCPU tick event scheduled @ 207000000
207000000: Event_43: AtomicSimpleCPU tick event scheduled @ 208000000
208000000: Event_43: AtomicSimpleCPU tick event scheduled @ 209000000
209000000: Event_43: AtomicSimpleCPU tick event scheduled @ 210000000
210000000: Event_43: AtomicSimpleCPU tick event scheduled @ 211000000
211000000: Event_43: AtomicSimpleCPU tick event scheduled @ 212000000
212000000: Event_43: AtomicSimpleCPU tick event scheduled @ 213000000
213000000: Event_43: AtomicSimpleCPU tick event scheduled @ 214000000
214000000: Event_43: AtomicSimpleCPU tick event scheduled @ 215000000
215000000: Event_43: AtomicSimpleCPU tick event scheduled @ 216000000
216000000: Event_43: AtomicSimpleCPU tick event scheduled @ 217000000
217000000: Event_43: AtomicSimpleCPU tick event scheduled @ 218000000
218000000: Event_43: AtomicSimpleCPU tick event scheduled @ 219000000
219000000: Event_43: AtomicSimpleCPU tick event scheduled @ 220000000
220000000: Event_43: AtomicSimpleCPU tick event scheduled @ 221000000
221000000: Event_43: AtomicSimpleCPU tick event scheduled @ 222000000
222000000: Event_43: AtomicSimpleCPU tick event scheduled @ 223000000
223000000: Event_43: AtomicSimpleCPU tick event scheduled @ 224000000
224000000: Event_43: AtomicSimpleCPU tick event scheduled @ 225000000
225000000: Event_43: AtomicSimpleCPU tick event scheduled @ 226000000
226000000: Event_43: AtomicSimpleCPU tick event scheduled @ 227000000
227000000: Event_43: AtomicSimpleCPU tick event scheduled @ 228000000
228000000: Event_43: AtomicSimpleCPU tick event scheduled @ 229000000
229000000: Event_43: AtomicSimpleCPU tick event scheduled @ 230000000
230000000: Event_43: AtomicSimpleCPU tick event scheduled @ 231000000
231000000: Event_43: AtomicSimpleCPU tick event scheduled @ 232000000
232000000: Event_43: AtomicSimpleCPU tick event scheduled @ 233000000
233000000: Event_43: AtomicSimpleCPU tick event scheduled @ 234000000
234000000: Event_43: AtomicSimpleCPU tick event scheduled @ 235000000
235000000: Event_43: AtomicSimpleCPU tick event scheduled @ 236000000
236000000: Event_43: AtomicSimpleCPU tick event scheduled @ 237000000
237000000: Event_43: AtomicSimpleCPU tick event scheduled @ 238000000
238000000: Event_43: AtomicSimpleCPU tick event scheduled @ 239000000
239000000: Event_43: AtomicSimpleCPU tick event scheduled @ 240000000
240000000: Event_43: AtomicSimpleCPU tick event scheduled @ 241000000
241000000: Event_43: AtomicSimpleCPU tick event scheduled @ 242000000
242000000: Event_43: AtomicSimpleCPU tick event scheduled @ 243000000
243000000: Event_43: AtomicSimpleCPU tick event scheduled @ 244000000
244000000: Event_43: AtomicSimpleCPU tick event scheduled @ 245000000
245000000: Event_43: AtomicSimpleCPU tick event scheduled @ 246000000
246000000: Event_43: AtomicSimpleCPU tick event scheduled @ 247000000
247000000: Event_43: AtomicSimpleCPU tick event scheduled @ 248000000
248000000: Event_43: AtomicSimpleCPU tick event scheduled @ 249000000
249000000: Event_43: AtomicSimpleCPU tick event scheduled @ 250000000
250000000: Event_43: AtomicSimpleCPU tick event scheduled @ 251000000
251000000: Event_43: AtomicSimpleCPU tick event scheduled @ 252000000
252000000: Event_43: AtomicSimpleCPU tick event scheduled @ 253000000
253000000: Event_43: AtomicSimpleCPU tick event scheduled @ 254000000
254000000: Event_43: AtomicSimpleCPU tick event scheduled @ 255000000
255000000: Event_43: AtomicSimpleCPU tick event scheduled @ 256000000
256000000: Event_43: AtomicSimpleCPU tick event scheduled @ 257000000
257000000: Event_43: AtomicSimpleCPU tick event scheduled @ 258000000
258000000: Event_43: AtomicSimpleCPU tick event scheduled @ 259000000
259000000: Event_43: AtomicSimpleCPU tick event scheduled @ 260000000
260000000: Event_43: AtomicSimpleCPU tick event scheduled @ 261000000
261000000: Event_43: AtomicSimpleCPU tick event scheduled @ 262000000
262000000: Event_43: AtomicSimpleCPU tick event scheduled @ 263000000
263000000: Event_43: AtomicSimpleCPU tick event scheduled @ 264000000
264000000: Event_43: AtomicSimpleCPU tick event scheduled @ 265000000
265000000: Event_43: AtomicSimpleCPU tick event scheduled @ 266000000
266000000: Event_43: AtomicSimpleCPU tick event scheduled @ 267000000
267000000: Event_43: AtomicSimpleCPU tick event scheduled @ 268000000
268000000: Event_43: AtomicSimpleCPU tick event scheduled @ 269000000
269000000: Event_43: AtomicSimpleCPU tick event scheduled @ 270000000
270000000: Event_43: AtomicSimpleCPU tick event scheduled @ 271000000
271000000: Event_43: AtomicSimpleCPU tick event scheduled @ 272000000
272000000: Event_43: AtomicSimpleCPU tick event scheduled @ 273000000
273000000: Event_43: AtomicSimpleCPU tick event scheduled @ 274000000
274000000: Event_43: AtomicSimpleCPU tick event scheduled @ 275000000
275000000: Event_43: AtomicSimpleCPU tick event scheduled @ 276000000
276000000: Event_43: AtomicSimpleCPU tick event scheduled @ 277000000
277000000: Event_43: AtomicSimpleCPU tick event scheduled @ 278000000
278000000: Event_43: AtomicSimpleCPU tick event scheduled @ 279000000
279000000: Event_43: AtomicSimpleCPU tick event scheduled @ 280000000
280000000: Event_43: AtomicSimpleCPU tick event scheduled @ 281000000
281000000: Event_43: AtomicSimpleCPU tick event scheduled @ 282000000
282000000: Event_43: AtomicSimpleCPU tick event scheduled @ 283000000
283000000: Event_43: AtomicSimpleCPU tick event scheduled @ 284000000
284000000: Event_43: AtomicSimpleCPU tick event scheduled @ 285000000
285000000: Event_43: AtomicSimpleCPU tick event scheduled @ 286000000
286000000: Event_43: AtomicSimpleCPU tick event scheduled @ 287000000
287000000: Event_43: AtomicSimpleCPU tick event scheduled @ 288000000
288000000: Event_43: AtomicSimpleCPU tick event scheduled @ 289000000
289000000: Event_43: AtomicSimpleCPU tick event scheduled @ 290000000
290000000: Event_43: AtomicSimpleCPU tick event scheduled @ 291000000
291000000: Event_43: AtomicSimpleCPU tick event scheduled @ 292000000
292000000: Event_43: AtomicSimpleCPU tick event scheduled @ 293000000
293000000: Event_43: AtomicSimpleCPU tick event scheduled @ 294000000
294000000: Event_43: AtomicSimpleCPU tick event scheduled @ 295000000
295000000: Event_43: AtomicSimpleCPU tick event scheduled @ 296000000
296000000: Event_43: AtomicSimpleCPU tick event scheduled @ 297000000
297000000: Event_43: AtomicSimpleCPU tick event scheduled @ 298000000
298000000: Event_43: AtomicSimpleCPU tick event scheduled @ 299000000
299000000: Event_43: AtomicSimpleCPU tick event scheduled @ 300000000
300000000: Event_43: AtomicSimpleCPU tick event scheduled @ 301000000
301000000: Event_43: AtomicSimpleCPU tick event scheduled @ 302000000
302000000: Event_43: AtomicSimpleCPU tick event scheduled @ 303000000
303000000: Event_43: AtomicSimpleCPU tick event scheduled @ 304000000
304000000: Event_43: AtomicSimpleCPU tick event scheduled @ 305000000
305000000: Event_43: AtomicSimpleCPU tick event scheduled @ 306000000
306000000: Event_43: AtomicSimpleCPU tick event scheduled @ 307000000
307000000: Event_43: AtomicSimpleCPU tick event scheduled @ 308000000
308000000: Event_43: AtomicSimpleCPU tick event scheduled @ 309000000
309000000: Event_43: AtomicSimpleCPU tick event scheduled @ 310000000
310000000: Event_43: AtomicSimpleCPU tick event scheduled @ 311000000
311000000: Event_43: AtomicSimpleCPU tick event scheduled @ 312000000
312000000: Event_43: AtomicSimpleCPU tick event scheduled @ 313000000
313000000: Event_43: AtomicSimpleCPU tick event scheduled @ 314000000
314000000: Event_43: AtomicSimpleCPU tick event scheduled @ 315000000
315000000: Event_43: AtomicSimpleCPU tick event scheduled @ 316000000
316000000: Event_43: AtomicSimpleCPU tick event scheduled @ 317000000
317000000: Event_43: AtomicSimpleCPU tick event scheduled @ 318000000
318000000: Event_43: AtomicSimpleCPU tick event scheduled @ 319000000
319000000: Event_43: AtomicSimpleCPU tick event scheduled @ 320000000
320000000: Event_43: AtomicSimpleCPU tick event scheduled @ 321000000
321000000: Event_43: AtomicSimpleCPU tick event scheduled @ 322000000
322000000: Event_43: AtomicSimpleCPU tick event scheduled @ 323000000
323000000: Event_43: AtomicSimpleCPU tick event scheduled @ 324000000
324000000: Event_43: AtomicSimpleCPU tick event scheduled @ 325000000
325000000: Event_43: AtomicSimpleCPU tick event scheduled @ 326000000
326000000: Event_43: AtomicSimpleCPU tick event scheduled @ 327000000
327000000: Event_43: AtomicSimpleCPU tick event scheduled @ 328000000
328000000: Event_43: AtomicSimpleCPU tick event scheduled @ 329000000
329000000: Event_43: AtomicSimpleCPU tick event scheduled @ 330000000
330000000: Event_43: AtomicSimpleCPU tick event scheduled @ 331000000
331000000: Event_43: AtomicSimpleCPU tick event scheduled @ 332000000
332000000: Event_43: AtomicSimpleCPU tick event scheduled @ 333000000
333000000: Event_43: AtomicSimpleCPU tick event scheduled @ 334000000
334000000: Event_43: AtomicSimpleCPU tick event scheduled @ 335000000
335000000: Event_43: AtomicSimpleCPU tick event scheduled @ 336000000
336000000: Event_43: AtomicSimpleCPU tick event scheduled @ 337000000
337000000: Event_43: AtomicSimpleCPU tick event scheduled @ 338000000
338000000: Event_43: AtomicSimpleCPU tick event scheduled @ 339000000
339000000: Event_43: AtomicSimpleCPU tick event scheduled @ 340000000
340000000: Event_43: AtomicSimpleCPU tick event scheduled @ 341000000
341000000: Event_43: AtomicSimpleCPU tick event scheduled @ 342000000
342000000: Event_43: AtomicSimpleCPU tick event scheduled @ 343000000
343000000: Event_43: AtomicSimpleCPU tick event scheduled @ 344000000
344000000: Event_43: AtomicSimpleCPU tick event scheduled @ 345000000
345000000: Event_43: AtomicSimpleCPU tick event scheduled @ 346000000
346000000: Event_43: AtomicSimpleCPU tick event scheduled @ 347000000
347000000: Event_43: AtomicSimpleCPU tick event scheduled @ 348000000
348000000: Event_43: AtomicSimpleCPU tick event scheduled @ 349000000
349000000: Event_43: AtomicSimpleCPU tick event scheduled @ 350000000
350000000: Event_43: AtomicSimpleCPU tick event scheduled @ 351000000
351000000: Event_43: AtomicSimpleCPU tick event scheduled @ 352000000
352000000: Event_43: AtomicSimpleCPU tick event scheduled @ 353000000
353000000: Event_43: AtomicSimpleCPU tick event scheduled @ 354000000
354000000: Event_43: AtomicSimpleCPU tick event scheduled @ 355000000
355000000: Event_43: AtomicSimpleCPU tick event scheduled @ 356000000
356000000: Event_43: AtomicSimpleCPU tick event scheduled @ 357000000
357000000: Event_43: AtomicSimpleCPU tick event scheduled @ 358000000
358000000: Event_43: AtomicSimpleCPU tick event scheduled @ 359000000
359000000: Event_43: AtomicSimpleCPU tick event scheduled @ 360000000
360000000: Event_43: AtomicSimpleCPU tick event scheduled @ 361000000
361000000: Event_43: AtomicSimpleCPU tick event scheduled @ 362000000
362000000: Event_43: AtomicSimpleCPU tick event scheduled @ 363000000
363000000: Event_43: AtomicSimpleCPU tick event scheduled @ 364000000
364000000: Event_43: AtomicSimpleCPU tick event scheduled @ 365000000
365000000: Event_43: AtomicSimpleCPU tick event scheduled @ 366000000
366000000: Event_43: AtomicSimpleCPU tick event scheduled @ 367000000
367000000: Event_43: AtomicSimpleCPU tick event scheduled @ 368000000
368000000: Event_43: AtomicSimpleCPU tick event scheduled @ 369000000
369000000: Event_43: AtomicSimpleCPU tick event scheduled @ 370000000
370000000: Event_43: AtomicSimpleCPU tick event scheduled @ 371000000
371000000: Event_43: AtomicSimpleCPU tick event scheduled @ 372000000
372000000: Event_43: AtomicSimpleCPU tick event scheduled @ 373000000
373000000: Event_43: AtomicSimpleCPU tick event scheduled @ 374000000
374000000: Event_43: AtomicSimpleCPU tick event scheduled @ 375000000
375000000: Event_43: AtomicSimpleCPU tick event scheduled @ 376000000
376000000: Event_43: AtomicSimpleCPU tick event scheduled @ 377000000
377000000: Event_43: AtomicSimpleCPU tick event scheduled @ 378000000
378000000: Event_43: AtomicSimpleCPU tick event scheduled @ 379000000
379000000: Event_43: AtomicSimpleCPU tick event scheduled @ 380000000
380000000: Event_43: AtomicSimpleCPU tick event scheduled @ 381000000
381000000: Event_43: AtomicSimpleCPU tick event scheduled @ 382000000
382000000: Event_43: AtomicSimpleCPU tick event scheduled @ 383000000
383000000: Event_43: AtomicSimpleCPU tick event scheduled @ 384000000
384000000: Event_43: AtomicSimpleCPU tick event scheduled @ 385000000
385000000: Event_43: AtomicSimpleCPU tick event scheduled @ 386000000
386000000: Event_43: AtomicSimpleCPU tick event scheduled @ 387000000
387000000: Event_43: AtomicSimpleCPU tick event scheduled @ 388000000
388000000: Event_43: AtomicSimpleCPU tick event scheduled @ 389000000
389000000: Event_43: AtomicSimpleCPU tick event scheduled @ 390000000
390000000: Event_43: AtomicSimpleCPU tick event scheduled @ 391000000
391000000: Event_43: AtomicSimpleCPU tick event scheduled @ 392000000
392000000: Event_43: AtomicSimpleCPU tick event scheduled @ 393000000
393000000: Event_43: AtomicSimpleCPU tick event scheduled @ 394000000
394000000: Event_43: AtomicSimpleCPU tick event scheduled @ 395000000
395000000: Event_43: AtomicSimpleCPU tick event scheduled @ 396000000
396000000: Event_43: AtomicSimpleCPU tick event scheduled @ 397000000
397000000: Event_43: AtomicSimpleCPU tick event scheduled @ 398000000
398000000: Event_43: AtomicSimpleCPU tick event scheduled @ 399000000
399000000: Event_43: AtomicSimpleCPU tick event scheduled @ 400000000
400000000: Event_43: AtomicSimpleCPU tick event scheduled @ 401000000
401000000: Event_43: AtomicSimpleCPU tick event scheduled @ 402000000
402000000: Event_43: AtomicSimpleCPU tick event scheduled @ 403000000
403000000: Event_43: AtomicSimpleCPU tick event scheduled @ 404000000
404000000: Event_43: AtomicSimpleCPU tick event scheduled @ 405000000
405000000: Event_43: AtomicSimpleCPU tick event scheduled @ 406000000
406000000: Event_43: AtomicSimpleCPU tick event scheduled @ 407000000
407000000: Event_43: AtomicSimpleCPU tick event scheduled @ 408000000
408000000: Event_43: AtomicSimpleCPU tick event scheduled @ 409000000
409000000: Event_43: AtomicSimpleCPU tick event scheduled @ 410000000
410000000: Event_43: AtomicSimpleCPU tick event scheduled @ 411000000
411000000: Event_43: AtomicSimpleCPU tick event scheduled @ 412000000
412000000: Event_43: AtomicSimpleCPU tick event scheduled @ 413000000
413000000: Event_43: AtomicSimpleCPU tick event scheduled @ 414000000
414000000: Event_43: AtomicSimpleCPU tick event scheduled @ 415000000
415000000: Event_43: AtomicSimpleCPU tick event scheduled @ 416000000
416000000: Event_43: AtomicSimpleCPU tick event scheduled @ 417000000
417000000: Event_43: AtomicSimpleCPU tick event scheduled @ 418000000
418000000: Event_43: AtomicSimpleCPU tick event scheduled @ 419000000
419000000: Event_43: AtomicSimpleCPU tick event scheduled @ 420000000
420000000: Event_43: AtomicSimpleCPU tick event scheduled @ 421000000
421000000: Event_43: AtomicSimpleCPU tick event scheduled @ 422000000
422000000: Event_43: AtomicSimpleCPU tick event scheduled @ 423000000
423000000: Event_43: AtomicSimpleCPU tick event scheduled @ 424000000
424000000: Event_43: AtomicSimpleCPU tick event scheduled @ 425000000
425000000: Event_43: AtomicSimpleCPU tick event scheduled @ 426000000
426000000: Event_43: AtomicSimpleCPU tick event scheduled @ 427000000
427000000: Event_43: AtomicSimpleCPU tick event scheduled @ 428000000
428000000: Event_43: AtomicSimpleCPU tick event scheduled @ 429000000
429000000: Event_43: AtomicSimpleCPU tick event scheduled @ 430000000
430000000: Event_43: AtomicSimpleCPU tick event scheduled @ 431000000
431000000: Event_43: AtomicSimpleCPU tick event scheduled @ 432000000
432000000: Event_43: AtomicSimpleCPU tick event scheduled @ 433000000
433000000: Event_43: AtomicSimpleCPU tick event scheduled @ 434000000
434000000: Event_43: AtomicSimpleCPU tick event scheduled @ 435000000
435000000: Event_43: AtomicSimpleCPU tick event scheduled @ 436000000
436000000: Event_43: AtomicSimpleCPU tick event scheduled @ 437000000
437000000: Event_43: AtomicSimpleCPU tick event scheduled @ 438000000
438000000: Event_43: AtomicSimpleCPU tick event scheduled @ 439000000
439000000: Event_43: AtomicSimpleCPU tick event scheduled @ 440000000
440000000: Event_43: AtomicSimpleCPU tick event scheduled @ 441000000
441000000: Event_43: AtomicSimpleCPU tick event scheduled @ 442000000
442000000: Event_43: AtomicSimpleCPU tick event scheduled @ 443000000
443000000: Event_43: AtomicSimpleCPU tick event scheduled @ 444000000
444000000: Event_43: AtomicSimpleCPU tick event scheduled @ 445000000
445000000: Event_43: AtomicSimpleCPU tick event scheduled @ 446000000
446000000: Event_43: AtomicSimpleCPU tick event scheduled @ 447000000
447000000: Event_43: AtomicSimpleCPU tick event scheduled @ 448000000
448000000: Event_43: AtomicSimpleCPU tick event scheduled @ 449000000
449000000: Event_43: AtomicSimpleCPU tick event scheduled @ 450000000
450000000: Event_43: AtomicSimpleCPU tick event scheduled @ 451000000
451000000: Event_43: AtomicSimpleCPU tick event scheduled @ 452000000
452000000: Event_43: AtomicSimpleCPU tick event scheduled @ 453000000
453000000: Event_43: AtomicSimpleCPU tick event scheduled @ 454000000
454000000: Event_43: AtomicSimpleCPU tick event scheduled @ 455000000
455000000: Event_43: AtomicSimpleCPU tick event scheduled @ 456000000
456000000: Event_43: AtomicSimpleCPU tick event scheduled @ 457000000
457000000: Event_43: AtomicSimpleCPU tick event scheduled @ 458000000
458000000: Event_43: AtomicSimpleCPU tick event scheduled @ 459000000
459000000: Event_43: AtomicSimpleCPU tick event scheduled @ 460000000
460000000: Event_43: AtomicSimpleCPU tick event scheduled @ 461000000
461000000: Event_43: AtomicSimpleCPU tick event scheduled @ 462000000
462000000: Event_43: AtomicSimpleCPU tick event scheduled @ 463000000
463000000: Event_43: AtomicSimpleCPU tick event scheduled @ 464000000
464000000: Event_43: AtomicSimpleCPU tick event scheduled @ 465000000
465000000: Event_43: AtomicSimpleCPU tick event scheduled @ 466000000
466000000: Event_43: AtomicSimpleCPU tick event scheduled @ 467000000
467000000: Event_43: AtomicSimpleCPU tick event scheduled @ 468000000
468000000: Event_43: AtomicSimpleCPU tick event scheduled @ 469000000
469000000: Event_43: AtomicSimpleCPU tick event scheduled @ 470000000
470000000: Event_43: AtomicSimpleCPU tick event scheduled @ 471000000
471000000: Event_43: AtomicSimpleCPU tick event scheduled @ 472000000
472000000: Event_43: AtomicSimpleCPU tick event scheduled @ 473000000
473000000: Event_43: AtomicSimpleCPU tick event scheduled @ 474000000
474000000: Event_43: AtomicSimpleCPU tick event scheduled @ 475000000
475000000: Event_43: AtomicSimpleCPU tick event scheduled @ 476000000
476000000: Event_43: AtomicSimpleCPU tick event scheduled @ 477000000
477000000: Event_43: AtomicSimpleCPU tick event scheduled @ 478000000
478000000: Event_43: AtomicSimpleCPU tick event scheduled @ 479000000
479000000: Event_43: AtomicSimpleCPU tick event scheduled @ 480000000
480000000: Event_43: AtomicSimpleCPU tick event scheduled @ 481000000
481000000: Event_43: AtomicSimpleCPU tick event scheduled @ 482000000
482000000: Event_43: AtomicSimpleCPU tick event scheduled @ 483000000
483000000: Event_43: AtomicSimpleCPU tick event scheduled @ 484000000
484000000: Event_43: AtomicSimpleCPU tick event scheduled @ 485000000
485000000: Event_43: AtomicSimpleCPU tick event scheduled @ 486000000
486000000: Event_43: AtomicSimpleCPU tick event scheduled @ 487000000
487000000: Event_43: AtomicSimpleCPU tick event scheduled @ 488000000
488000000: Event_43: AtomicSimpleCPU tick event scheduled @ 489000000
489000000: Event_43: AtomicSimpleCPU tick event scheduled @ 490000000
490000000: Event_43: AtomicSimpleCPU tick event scheduled @ 491000000
491000000: Event_43: AtomicSimpleCPU tick event scheduled @ 492000000
492000000: Event_43: AtomicSimpleCPU tick event scheduled @ 493000000
493000000: Event_43: AtomicSimpleCPU tick event scheduled @ 494000000
494000000: Event_43: AtomicSimpleCPU tick event scheduled @ 495000000
495000000: Event_43: AtomicSimpleCPU tick event scheduled @ 496000000
496000000: Event_43: AtomicSimpleCPU tick event scheduled @ 497000000
497000000: Event_43: AtomicSimpleCPU tick event scheduled @ 498000000
498000000: Event_43: AtomicSimpleCPU tick event scheduled @ 499000000
499000000: Event_43: AtomicSimpleCPU tick event scheduled @ 500000000
500000000: Event_43: AtomicSimpleCPU tick event scheduled @ 501000000
501000000: Event_43: AtomicSimpleCPU tick event scheduled @ 502000000
502000000: Event_43: AtomicSimpleCPU tick event scheduled @ 503000000
503000000: Event_43: AtomicSimpleCPU tick event scheduled @ 504000000
504000000: Event_43: AtomicSimpleCPU tick event scheduled @ 505000000
505000000: Event_43: AtomicSimpleCPU tick event scheduled @ 506000000
506000000: Event_43: AtomicSimpleCPU tick event scheduled @ 507000000
507000000: Event_43: AtomicSimpleCPU tick event scheduled @ 508000000
508000000: Event_43: AtomicSimpleCPU tick event scheduled @ 509000000
509000000: Event_43: AtomicSimpleCPU tick event scheduled @ 510000000
510000000: Event_43: AtomicSimpleCPU tick event scheduled @ 511000000
511000000: Event_43: AtomicSimpleCPU tick event scheduled @ 512000000
512000000: Event_43: AtomicSimpleCPU tick event scheduled @ 513000000
513000000: Event_43: AtomicSimpleCPU tick event scheduled @ 514000000
514000000: Event_43: AtomicSimpleCPU tick event scheduled @ 515000000
515000000: Event_43: AtomicSimpleCPU tick event scheduled @ 516000000
516000000: Event_43: AtomicSimpleCPU tick event scheduled @ 517000000
517000000: Event_43: AtomicSimpleCPU tick event scheduled @ 518000000
518000000: Event_43: AtomicSimpleCPU tick event scheduled @ 519000000
519000000: Event_43: AtomicSimpleCPU tick event scheduled @ 520000000
520000000: Event_43: AtomicSimpleCPU tick event scheduled @ 521000000
521000000: Event_43: AtomicSimpleCPU tick event scheduled @ 522000000
522000000: Event_43: AtomicSimpleCPU tick event scheduled @ 523000000
523000000: Event_43: AtomicSimpleCPU tick event scheduled @ 524000000
524000000: Event_43: AtomicSimpleCPU tick event scheduled @ 525000000
525000000: Event_43: AtomicSimpleCPU tick event scheduled @ 526000000
526000000: Event_43: AtomicSimpleCPU tick event scheduled @ 527000000
527000000: Event_43: AtomicSimpleCPU tick event scheduled @ 528000000
528000000: Event_43: AtomicSimpleCPU tick event scheduled @ 529000000
529000000: Event_43: AtomicSimpleCPU tick event scheduled @ 530000000
530000000: Event_43: AtomicSimpleCPU tick event scheduled @ 531000000
531000000: Event_43: AtomicSimpleCPU tick event scheduled @ 532000000
532000000: Event_43: AtomicSimpleCPU tick event scheduled @ 533000000
533000000: Event_43: AtomicSimpleCPU tick event scheduled @ 534000000
534000000: Event_43: AtomicSimpleCPU tick event scheduled @ 535000000
535000000: Event_43: AtomicSimpleCPU tick event scheduled @ 536000000
536000000: Event_43: AtomicSimpleCPU tick event scheduled @ 537000000
537000000: Event_43: AtomicSimpleCPU tick event scheduled @ 538000000
538000000: Event_43: AtomicSimpleCPU tick event scheduled @ 539000000
539000000: Event_43: AtomicSimpleCPU tick event scheduled @ 540000000
540000000: Event_43: AtomicSimpleCPU tick event scheduled @ 541000000
541000000: Event_43: AtomicSimpleCPU tick event scheduled @ 542000000
542000000: Event_43: AtomicSimpleCPU tick event scheduled @ 543000000
543000000: Event_43: AtomicSimpleCPU tick event scheduled @ 544000000
544000000: Event_43: AtomicSimpleCPU tick event scheduled @ 545000000
545000000: Event_43: AtomicSimpleCPU tick event scheduled @ 546000000
546000000: Event_43: AtomicSimpleCPU tick event scheduled @ 547000000
547000000: Event_43: AtomicSimpleCPU tick event scheduled @ 548000000
548000000: Event_43: AtomicSimpleCPU tick event scheduled @ 549000000
549000000: Event_43: AtomicSimpleCPU tick event scheduled @ 550000000
550000000: Event_43: AtomicSimpleCPU tick event scheduled @ 551000000
551000000: Event_43: AtomicSimpleCPU tick event scheduled @ 552000000
552000000: Event_43: AtomicSimpleCPU tick event scheduled @ 553000000
553000000: Event_43: AtomicSimpleCPU tick event scheduled @ 554000000
554000000: Event_43: AtomicSimpleCPU tick event scheduled @ 555000000
555000000: Event_43: AtomicSimpleCPU tick event scheduled @ 556000000
556000000: Event_43: AtomicSimpleCPU tick event scheduled @ 557000000
557000000: Event_43: AtomicSimpleCPU tick event scheduled @ 558000000
558000000: Event_43: AtomicSimpleCPU tick event scheduled @ 559000000
559000000: Event_43: AtomicSimpleCPU tick event scheduled @ 560000000
560000000: Event_43: AtomicSimpleCPU tick event scheduled @ 561000000
561000000: Event_43: AtomicSimpleCPU tick event scheduled @ 562000000
562000000: Event_43: AtomicSimpleCPU tick event scheduled @ 563000000
563000000: Event_43: AtomicSimpleCPU tick event scheduled @ 564000000
564000000: Event_43: AtomicSimpleCPU tick event scheduled @ 565000000
565000000: Event_43: AtomicSimpleCPU tick event scheduled @ 566000000
566000000: Event_43: AtomicSimpleCPU tick event scheduled @ 567000000
567000000: Event_43: AtomicSimpleCPU tick event scheduled @ 568000000
568000000: Event_43: AtomicSimpleCPU tick event scheduled @ 569000000
569000000: Event_43: AtomicSimpleCPU tick event scheduled @ 570000000
570000000: Event_43: AtomicSimpleCPU tick event scheduled @ 571000000
571000000: Event_43: AtomicSimpleCPU tick event scheduled @ 572000000
572000000: Event_43: AtomicSimpleCPU tick event scheduled @ 573000000
573000000: Event_43: AtomicSimpleCPU tick event scheduled @ 574000000
574000000: Event_43: AtomicSimpleCPU tick event scheduled @ 575000000
575000000: Event_43: AtomicSimpleCPU tick event scheduled @ 576000000
576000000: Event_43: AtomicSimpleCPU tick event scheduled @ 577000000
577000000: Event_43: AtomicSimpleCPU tick event scheduled @ 578000000
578000000: Event_43: AtomicSimpleCPU tick event scheduled @ 579000000
579000000: Event_43: AtomicSimpleCPU tick event scheduled @ 580000000
580000000: Event_43: AtomicSimpleCPU tick event scheduled @ 581000000
581000000: Event_43: AtomicSimpleCPU tick event scheduled @ 582000000
582000000: Event_43: AtomicSimpleCPU tick event scheduled @ 583000000
583000000: Event_43: AtomicSimpleCPU tick event scheduled @ 584000000
584000000: Event_43: AtomicSimpleCPU tick event scheduled @ 585000000
585000000: Event_43: AtomicSimpleCPU tick event scheduled @ 586000000
586000000: Event_43: AtomicSimpleCPU tick event scheduled @ 587000000
587000000: Event_43: AtomicSimpleCPU tick event scheduled @ 588000000
588000000: Event_43: AtomicSimpleCPU tick event scheduled @ 589000000
589000000: Event_43: AtomicSimpleCPU tick event scheduled @ 590000000
590000000: Event_43: AtomicSimpleCPU tick event scheduled @ 591000000
591000000: Event_43: AtomicSimpleCPU tick event scheduled @ 592000000
592000000: Event_43: AtomicSimpleCPU tick event scheduled @ 593000000
593000000: Event_43: AtomicSimpleCPU tick event scheduled @ 594000000
594000000: Event_43: AtomicSimpleCPU tick event scheduled @ 595000000
595000000: Event_43: AtomicSimpleCPU tick event scheduled @ 596000000
596000000: Event_43: AtomicSimpleCPU tick event scheduled @ 597000000
597000000: Event_43: AtomicSimpleCPU tick event scheduled @ 598000000
598000000: Event_43: AtomicSimpleCPU tick event scheduled @ 599000000
599000000: Event_43: AtomicSimpleCPU tick event scheduled @ 600000000
600000000: Event_43: AtomicSimpleCPU tick event scheduled @ 601000000
601000000: Event_43: AtomicSimpleCPU tick event scheduled @ 602000000
602000000: Event_43: AtomicSimpleCPU tick event scheduled @ 603000000
603000000: Event_43: AtomicSimpleCPU tick event scheduled @ 604000000
604000000: Event_43: AtomicSimpleCPU tick event scheduled @ 605000000
605000000: Event_43: AtomicSimpleCPU tick event scheduled @ 606000000
606000000: Event_43: AtomicSimpleCPU tick event scheduled @ 607000000
607000000: Event_43: AtomicSimpleCPU tick event scheduled @ 608000000
608000000: Event_43: AtomicSimpleCPU tick event scheduled @ 609000000
609000000: Event_43: AtomicSimpleCPU tick event scheduled @ 610000000
610000000: Event_43: AtomicSimpleCPU tick event scheduled @ 611000000
611000000: Event_43: AtomicSimpleCPU tick event scheduled @ 612000000
612000000: Event_43: AtomicSimpleCPU tick event scheduled @ 613000000
613000000: Event_43: AtomicSimpleCPU tick event scheduled @ 614000000
614000000: Event_43: AtomicSimpleCPU tick event scheduled @ 615000000
615000000: Event_43: AtomicSimpleCPU tick event scheduled @ 616000000
616000000: Event_43: AtomicSimpleCPU tick event scheduled @ 617000000
617000000: Event_43: AtomicSimpleCPU tick event scheduled @ 618000000
618000000: Event_43: AtomicSimpleCPU tick event scheduled @ 619000000
619000000: Event_43: AtomicSimpleCPU tick event scheduled @ 620000000
620000000: Event_43: AtomicSimpleCPU tick event scheduled @ 621000000
621000000: Event_43: AtomicSimpleCPU tick event scheduled @ 622000000
622000000: Event_43: AtomicSimpleCPU tick event scheduled @ 623000000
623000000: Event_43: AtomicSimpleCPU tick event scheduled @ 624000000
624000000: Event_43: AtomicSimpleCPU tick event scheduled @ 625000000
625000000: Event_43: AtomicSimpleCPU tick event scheduled @ 626000000
626000000: Event_43: AtomicSimpleCPU tick event scheduled @ 627000000
627000000: Event_43: AtomicSimpleCPU tick event scheduled @ 628000000
628000000: Event_43: AtomicSimpleCPU tick event scheduled @ 629000000
629000000: Event_43: AtomicSimpleCPU tick event scheduled @ 630000000
630000000: Event_43: AtomicSimpleCPU tick event scheduled @ 631000000
631000000: Event_43: AtomicSimpleCPU tick event scheduled @ 632000000
632000000: Event_43: AtomicSimpleCPU tick event scheduled @ 633000000
633000000: Event_43: AtomicSimpleCPU tick event scheduled @ 634000000
634000000: Event_43: AtomicSimpleCPU tick event scheduled @ 635000000
635000000: Event_43: AtomicSimpleCPU tick event scheduled @ 636000000
636000000: Event_43: AtomicSimpleCPU tick event scheduled @ 637000000
637000000: Event_43: AtomicSimpleCPU tick event scheduled @ 638000000
638000000: Event_43: AtomicSimpleCPU tick event scheduled @ 639000000
639000000: Event_43: AtomicSimpleCPU tick event scheduled @ 640000000
640000000: Event_43: AtomicSimpleCPU tick event scheduled @ 641000000
641000000: Event_43: AtomicSimpleCPU tick event scheduled @ 642000000
642000000: Event_43: AtomicSimpleCPU tick event scheduled @ 643000000
643000000: Event_43: AtomicSimpleCPU tick event scheduled @ 644000000
644000000: Event_43: AtomicSimpleCPU tick event scheduled @ 645000000
645000000: Event_43: AtomicSimpleCPU tick event scheduled @ 646000000
646000000: Event_43: AtomicSimpleCPU tick event scheduled @ 647000000
647000000: Event_43: AtomicSimpleCPU tick event scheduled @ 648000000
648000000: Event_43: AtomicSimpleCPU tick event scheduled @ 649000000
649000000: Event_43: AtomicSimpleCPU tick event scheduled @ 650000000
650000000: Event_43: AtomicSimpleCPU tick event scheduled @ 651000000
651000000: Event_43: AtomicSimpleCPU tick event scheduled @ 652000000
652000000: Event_43: AtomicSimpleCPU tick event scheduled @ 653000000
653000000: Event_43: AtomicSimpleCPU tick event scheduled @ 654000000
654000000: Event_43: AtomicSimpleCPU tick event scheduled @ 655000000
655000000: Event_43: AtomicSimpleCPU tick event scheduled @ 656000000
656000000: Event_43: AtomicSimpleCPU tick event scheduled @ 657000000
657000000: Event_43: AtomicSimpleCPU tick event scheduled @ 658000000
658000000: Event_43: AtomicSimpleCPU tick event scheduled @ 659000000
659000000: Event_43: AtomicSimpleCPU tick event scheduled @ 660000000
660000000: Event_43: AtomicSimpleCPU tick event scheduled @ 661000000
661000000: Event_43: AtomicSimpleCPU tick event scheduled @ 662000000
662000000: Event_43: AtomicSimpleCPU tick event scheduled @ 663000000
663000000: Event_43: AtomicSimpleCPU tick event scheduled @ 664000000
664000000: Event_43: AtomicSimpleCPU tick event scheduled @ 665000000
665000000: Event_43: AtomicSimpleCPU tick event scheduled @ 666000000
666000000: Event_43: AtomicSimpleCPU tick event scheduled @ 667000000
667000000: Event_43: AtomicSimpleCPU tick event scheduled @ 668000000
668000000: Event_43: AtomicSimpleCPU tick event scheduled @ 669000000
669000000: Event_43: AtomicSimpleCPU tick event scheduled @ 670000000
670000000: Event_43: AtomicSimpleCPU tick event scheduled @ 671000000
671000000: Event_43: AtomicSimpleCPU tick event scheduled @ 672000000
672000000: Event_43: AtomicSimpleCPU tick event scheduled @ 673000000
673000000: Event_43: AtomicSimpleCPU tick event scheduled @ 674000000
674000000: Event_43: AtomicSimpleCPU tick event scheduled @ 675000000
675000000: Event_43: AtomicSimpleCPU tick event scheduled @ 676000000
676000000: Event_43: AtomicSimpleCPU tick event scheduled @ 677000000
677000000: Event_43: AtomicSimpleCPU tick event scheduled @ 678000000
678000000: Event_43: AtomicSimpleCPU tick event scheduled @ 679000000
679000000: Event_43: AtomicSimpleCPU tick event scheduled @ 680000000
680000000: Event_43: AtomicSimpleCPU tick event scheduled @ 681000000
681000000: Event_43: AtomicSimpleCPU tick event scheduled @ 682000000
682000000: Event_43: AtomicSimpleCPU tick event scheduled @ 683000000
683000000: Event_43: AtomicSimpleCPU tick event scheduled @ 684000000
684000000: Event_43: AtomicSimpleCPU tick event scheduled @ 685000000
685000000: Event_43: AtomicSimpleCPU tick event scheduled @ 686000000
686000000: Event_43: AtomicSimpleCPU tick event scheduled @ 687000000
687000000: Event_43: AtomicSimpleCPU tick event scheduled @ 688000000
688000000: Event_43: AtomicSimpleCPU tick event scheduled @ 689000000
689000000: Event_43: AtomicSimpleCPU tick event scheduled @ 690000000
690000000: Event_43: AtomicSimpleCPU tick event scheduled @ 691000000
691000000: Event_43: AtomicSimpleCPU tick event scheduled @ 692000000
692000000: Event_43: AtomicSimpleCPU tick event scheduled @ 693000000
693000000: Event_43: AtomicSimpleCPU tick event scheduled @ 694000000
694000000: Event_43: AtomicSimpleCPU tick event scheduled @ 695000000
695000000: Event_43: AtomicSimpleCPU tick event scheduled @ 696000000
696000000: Event_43: AtomicSimpleCPU tick event scheduled @ 697000000
697000000: Event_43: AtomicSimpleCPU tick event scheduled @ 698000000
698000000: Event_43: AtomicSimpleCPU tick event scheduled @ 699000000
699000000: Event_43: AtomicSimpleCPU tick event scheduled @ 700000000
700000000: Event_43: AtomicSimpleCPU tick event scheduled @ 701000000
701000000: Event_43: AtomicSimpleCPU tick event scheduled @ 702000000
702000000: Event_43: AtomicSimpleCPU tick event scheduled @ 703000000
703000000: Event_43: AtomicSimpleCPU tick event scheduled @ 704000000
704000000: Event_43: AtomicSimpleCPU tick event scheduled @ 705000000
705000000: Event_43: AtomicSimpleCPU tick event scheduled @ 706000000
706000000: Event_43: AtomicSimpleCPU tick event scheduled @ 707000000
707000000: Event_43: AtomicSimpleCPU tick event scheduled @ 708000000
708000000: Event_43: AtomicSimpleCPU tick event scheduled @ 709000000
709000000: Event_43: AtomicSimpleCPU tick event scheduled @ 710000000
710000000: Event_43: AtomicSimpleCPU tick event scheduled @ 711000000
711000000: Event_43: AtomicSimpleCPU tick event scheduled @ 712000000
712000000: Event_43: AtomicSimpleCPU tick event scheduled @ 713000000
713000000: Event_43: AtomicSimpleCPU tick event scheduled @ 714000000
714000000: Event_43: AtomicSimpleCPU tick event scheduled @ 715000000
715000000: Event_43: AtomicSimpleCPU tick event scheduled @ 716000000
716000000: Event_43: AtomicSimpleCPU tick event scheduled @ 717000000
717000000: Event_43: AtomicSimpleCPU tick event scheduled @ 718000000
718000000: Event_43: AtomicSimpleCPU tick event scheduled @ 719000000
719000000: Event_43: AtomicSimpleCPU tick event scheduled @ 720000000
720000000: Event_43: AtomicSimpleCPU tick event scheduled @ 721000000
721000000: Event_43: AtomicSimpleCPU tick event scheduled @ 722000000
722000000: Event_43: AtomicSimpleCPU tick event scheduled @ 723000000
723000000: Event_43: AtomicSimpleCPU tick event scheduled @ 724000000
724000000: Event_43: AtomicSimpleCPU tick event scheduled @ 725000000
725000000: Event_43: AtomicSimpleCPU tick event scheduled @ 726000000
726000000: Event_43: AtomicSimpleCPU tick event scheduled @ 727000000
727000000: Event_43: AtomicSimpleCPU tick event scheduled @ 728000000
728000000: Event_43: AtomicSimpleCPU tick event scheduled @ 729000000
729000000: Event_43: AtomicSimpleCPU tick event scheduled @ 730000000
730000000: Event_43: AtomicSimpleCPU tick event scheduled @ 731000000
731000000: Event_43: AtomicSimpleCPU tick event scheduled @ 732000000
732000000: Event_43: AtomicSimpleCPU tick event scheduled @ 733000000
733000000: Event_43: AtomicSimpleCPU tick event scheduled @ 734000000
734000000: Event_43: AtomicSimpleCPU tick event scheduled @ 735000000
735000000: Event_43: AtomicSimpleCPU tick event scheduled @ 736000000
736000000: Event_43: AtomicSimpleCPU tick event scheduled @ 737000000
737000000: Event_43: AtomicSimpleCPU tick event scheduled @ 738000000
738000000: Event_43: AtomicSimpleCPU tick event scheduled @ 739000000
739000000: Event_43: AtomicSimpleCPU tick event scheduled @ 740000000
740000000: Event_43: AtomicSimpleCPU tick event scheduled @ 741000000
741000000: Event_43: AtomicSimpleCPU tick event scheduled @ 742000000
742000000: Event_43: AtomicSimpleCPU tick event scheduled @ 743000000
743000000: Event_43: AtomicSimpleCPU tick event scheduled @ 744000000
744000000: Event_43: AtomicSimpleCPU tick event scheduled @ 745000000
745000000: Event_43: AtomicSimpleCPU tick event scheduled @ 746000000
746000000: Event_43: AtomicSimpleCPU tick event scheduled @ 747000000
747000000: Event_43: AtomicSimpleCPU tick event scheduled @ 748000000
748000000: Event_43: AtomicSimpleCPU tick event scheduled @ 749000000
749000000: Event_43: AtomicSimpleCPU tick event scheduled @ 750000000
750000000: Event_43: AtomicSimpleCPU tick event scheduled @ 751000000
751000000: Event_43: AtomicSimpleCPU tick event scheduled @ 752000000
752000000: Event_43: AtomicSimpleCPU tick event scheduled @ 753000000
753000000: Event_43: AtomicSimpleCPU tick event scheduled @ 754000000
754000000: Event_43: AtomicSimpleCPU tick event scheduled @ 755000000
755000000: Event_43: AtomicSimpleCPU tick event scheduled @ 756000000
756000000: Event_43: AtomicSimpleCPU tick event scheduled @ 757000000
757000000: Event_43: AtomicSimpleCPU tick event scheduled @ 758000000
758000000: Event_43: AtomicSimpleCPU tick event scheduled @ 759000000
759000000: Event_43: AtomicSimpleCPU tick event scheduled @ 760000000
760000000: Event_43: AtomicSimpleCPU tick event scheduled @ 761000000
761000000: Event_43: AtomicSimpleCPU tick event scheduled @ 762000000
762000000: Event_43: AtomicSimpleCPU tick event scheduled @ 763000000
763000000: Event_43: AtomicSimpleCPU tick event scheduled @ 764000000
764000000: Event_43: AtomicSimpleCPU tick event scheduled @ 765000000
765000000: Event_43: AtomicSimpleCPU tick event scheduled @ 766000000
766000000: Event_43: AtomicSimpleCPU tick event scheduled @ 767000000
767000000: Event_43: AtomicSimpleCPU tick event scheduled @ 768000000
768000000: Event_43: AtomicSimpleCPU tick event scheduled @ 769000000
769000000: Event_43: AtomicSimpleCPU tick event scheduled @ 770000000
770000000: Event_43: AtomicSimpleCPU tick event scheduled @ 771000000
771000000: Event_43: AtomicSimpleCPU tick event scheduled @ 772000000
772000000: Event_43: AtomicSimpleCPU tick event scheduled @ 773000000
773000000: Event_43: AtomicSimpleCPU tick event scheduled @ 774000000
774000000: Event_43: AtomicSimpleCPU tick event scheduled @ 775000000
775000000: Event_43: AtomicSimpleCPU tick event scheduled @ 776000000
776000000: Event_43: AtomicSimpleCPU tick event scheduled @ 777000000
777000000: Event_43: AtomicSimpleCPU tick event scheduled @ 778000000
778000000: Event_43: AtomicSimpleCPU tick event scheduled @ 779000000
779000000: Event_43: AtomicSimpleCPU tick event scheduled @ 780000000
780000000: Event_43: AtomicSimpleCPU tick event scheduled @ 781000000
781000000: Event_43: AtomicSimpleCPU tick event scheduled @ 782000000
782000000: Event_43: AtomicSimpleCPU tick event scheduled @ 783000000
783000000: Event_43: AtomicSimpleCPU tick event scheduled @ 784000000
784000000: Event_43: AtomicSimpleCPU tick event scheduled @ 785000000
785000000: Event_43: AtomicSimpleCPU tick event scheduled @ 786000000
786000000: Event_43: AtomicSimpleCPU tick event scheduled @ 787000000
787000000: Event_43: AtomicSimpleCPU tick event scheduled @ 788000000
788000000: Event_43: AtomicSimpleCPU tick event scheduled @ 789000000
789000000: Event_43: AtomicSimpleCPU tick event scheduled @ 790000000
790000000: Event_43: AtomicSimpleCPU tick event scheduled @ 791000000
791000000: Event_43: AtomicSimpleCPU tick event scheduled @ 792000000
792000000: Event_43: AtomicSimpleCPU tick event scheduled @ 793000000
793000000: Event_43: AtomicSimpleCPU tick event scheduled @ 794000000
794000000: Event_43: AtomicSimpleCPU tick event scheduled @ 795000000
795000000: Event_43: AtomicSimpleCPU tick event scheduled @ 796000000
796000000: Event_43: AtomicSimpleCPU tick event scheduled @ 797000000
797000000: Event_43: AtomicSimpleCPU tick event scheduled @ 798000000
798000000: Event_43: AtomicSimpleCPU tick event scheduled @ 799000000
799000000: Event_43: AtomicSimpleCPU tick event scheduled @ 800000000
800000000: Event_43: AtomicSimpleCPU tick event scheduled @ 801000000
801000000: Event_43: AtomicSimpleCPU tick event scheduled @ 802000000
802000000: Event_43: AtomicSimpleCPU tick event scheduled @ 803000000
803000000: Event_43: AtomicSimpleCPU tick event scheduled @ 804000000
804000000: Event_43: AtomicSimpleCPU tick event scheduled @ 805000000
805000000: Event_43: AtomicSimpleCPU tick event scheduled @ 806000000
806000000: Event_43: AtomicSimpleCPU tick event scheduled @ 807000000
807000000: Event_43: AtomicSimpleCPU tick event scheduled @ 808000000
808000000: Event_43: AtomicSimpleCPU tick event scheduled @ 809000000
809000000: Event_43: AtomicSimpleCPU tick event scheduled @ 810000000
810000000: Event_43: AtomicSimpleCPU tick event scheduled @ 811000000
811000000: Event_43: AtomicSimpleCPU tick event scheduled @ 812000000
812000000: Event_43: AtomicSimpleCPU tick event scheduled @ 813000000
813000000: Event_43: AtomicSimpleCPU tick event scheduled @ 814000000
814000000: Event_43: AtomicSimpleCPU tick event scheduled @ 815000000
815000000: Event_43: AtomicSimpleCPU tick event scheduled @ 816000000
816000000: Event_43: AtomicSimpleCPU tick event scheduled @ 817000000
817000000: Event_43: AtomicSimpleCPU tick event scheduled @ 818000000
818000000: Event_43: AtomicSimpleCPU tick event scheduled @ 819000000
819000000: Event_43: AtomicSimpleCPU tick event scheduled @ 820000000
820000000: Event_43: AtomicSimpleCPU tick event scheduled @ 821000000
821000000: Event_43: AtomicSimpleCPU tick event scheduled @ 822000000
822000000: Event_43: AtomicSimpleCPU tick event scheduled @ 823000000
823000000: Event_43: AtomicSimpleCPU tick event scheduled @ 824000000
824000000: Event_43: AtomicSimpleCPU tick event scheduled @ 825000000
825000000: Event_43: AtomicSimpleCPU tick event scheduled @ 826000000
826000000: Event_43: AtomicSimpleCPU tick event scheduled @ 827000000
827000000: Event_43: AtomicSimpleCPU tick event scheduled @ 828000000
828000000: Event_43: AtomicSimpleCPU tick event scheduled @ 829000000
829000000: Event_43: AtomicSimpleCPU tick event scheduled @ 830000000
830000000: Event_43: AtomicSimpleCPU tick event scheduled @ 831000000
831000000: Event_43: AtomicSimpleCPU tick event scheduled @ 832000000
832000000: Event_43: AtomicSimpleCPU tick event scheduled @ 833000000
833000000: Event_43: AtomicSimpleCPU tick event scheduled @ 834000000
834000000: Event_43: AtomicSimpleCPU tick event scheduled @ 835000000
835000000: Event_43: AtomicSimpleCPU tick event scheduled @ 836000000
836000000: Event_43: AtomicSimpleCPU tick event scheduled @ 837000000
837000000: Event_43: AtomicSimpleCPU tick event scheduled @ 838000000
838000000: Event_43: AtomicSimpleCPU tick event scheduled @ 839000000
839000000: Event_43: AtomicSimpleCPU tick event scheduled @ 840000000
840000000: Event_43: AtomicSimpleCPU tick event scheduled @ 841000000
841000000: Event_43: AtomicSimpleCPU tick event scheduled @ 842000000
842000000: Event_43: AtomicSimpleCPU tick event scheduled @ 843000000
843000000: Event_43: AtomicSimpleCPU tick event scheduled @ 844000000
844000000: Event_43: AtomicSimpleCPU tick event scheduled @ 845000000
845000000: Event_43: AtomicSimpleCPU tick event scheduled @ 846000000
846000000: Event_43: AtomicSimpleCPU tick event scheduled @ 847000000
847000000: Event_43: AtomicSimpleCPU tick event scheduled @ 848000000
848000000: Event_43: AtomicSimpleCPU tick event scheduled @ 849000000
849000000: Event_43: AtomicSimpleCPU tick event scheduled @ 850000000
850000000: Event_43: AtomicSimpleCPU tick event scheduled @ 851000000
851000000: Event_43: AtomicSimpleCPU tick event scheduled @ 852000000
852000000: Event_43: AtomicSimpleCPU tick event scheduled @ 853000000
853000000: Event_43: AtomicSimpleCPU tick event scheduled @ 854000000
854000000: Event_43: AtomicSimpleCPU tick event scheduled @ 855000000
855000000: Event_43: AtomicSimpleCPU tick event scheduled @ 856000000
856000000: Event_43: AtomicSimpleCPU tick event scheduled @ 857000000
857000000: Event_43: AtomicSimpleCPU tick event scheduled @ 858000000
858000000: Event_43: AtomicSimpleCPU tick event scheduled @ 859000000
859000000: Event_43: AtomicSimpleCPU tick event scheduled @ 860000000
860000000: Event_43: AtomicSimpleCPU tick event scheduled @ 861000000
861000000: Event_43: AtomicSimpleCPU tick event scheduled @ 862000000
862000000: Event_43: AtomicSimpleCPU tick event scheduled @ 863000000
863000000: Event_43: AtomicSimpleCPU tick event scheduled @ 864000000
864000000: Event_43: AtomicSimpleCPU tick event scheduled @ 865000000
865000000: Event_43: AtomicSimpleCPU tick event scheduled @ 866000000
866000000: Event_43: AtomicSimpleCPU tick event scheduled @ 867000000
867000000: Event_43: AtomicSimpleCPU tick event scheduled @ 868000000
868000000: Event_43: AtomicSimpleCPU tick event scheduled @ 869000000
869000000: Event_43: AtomicSimpleCPU tick event scheduled @ 870000000
870000000: Event_43: AtomicSimpleCPU tick event scheduled @ 871000000
871000000: Event_43: AtomicSimpleCPU tick event scheduled @ 872000000
872000000: Event_43: AtomicSimpleCPU tick event scheduled @ 873000000
873000000: Event_43: AtomicSimpleCPU tick event scheduled @ 874000000
874000000: Event_43: AtomicSimpleCPU tick event scheduled @ 875000000
875000000: Event_43: AtomicSimpleCPU tick event scheduled @ 876000000
876000000: Event_43: AtomicSimpleCPU tick event scheduled @ 877000000
877000000: Event_43: AtomicSimpleCPU tick event scheduled @ 878000000
878000000: Event_43: AtomicSimpleCPU tick event scheduled @ 879000000
879000000: Event_43: AtomicSimpleCPU tick event scheduled @ 880000000
880000000: Event_43: AtomicSimpleCPU tick event scheduled @ 881000000
881000000: Event_43: AtomicSimpleCPU tick event scheduled @ 882000000
882000000: Event_43: AtomicSimpleCPU tick event scheduled @ 883000000
883000000: Event_43: AtomicSimpleCPU tick event scheduled @ 884000000
884000000: Event_43: AtomicSimpleCPU tick event scheduled @ 885000000
885000000: Event_43: AtomicSimpleCPU tick event scheduled @ 886000000
886000000: Event_43: AtomicSimpleCPU tick event scheduled @ 887000000
887000000: Event_43: AtomicSimpleCPU tick event scheduled @ 888000000
888000000: Event_43: AtomicSimpleCPU tick event scheduled @ 889000000
889000000: Event_43: AtomicSimpleCPU tick event scheduled @ 890000000
890000000: Event_43: AtomicSimpleCPU tick event scheduled @ 891000000
891000000: Event_43: AtomicSimpleCPU tick event scheduled @ 892000000
892000000: Event_43: AtomicSimpleCPU tick event scheduled @ 893000000
893000000: Event_43: AtomicSimpleCPU tick event scheduled @ 894000000
894000000: Event_43: AtomicSimpleCPU tick event scheduled @ 895000000
895000000: Event_43: AtomicSimpleCPU tick event scheduled @ 896000000
896000000: Event_43: AtomicSimpleCPU tick event scheduled @ 897000000
897000000: Event_43: AtomicSimpleCPU tick event scheduled @ 898000000
898000000: Event_43: AtomicSimpleCPU tick event scheduled @ 899000000
899000000: Event_43: AtomicSimpleCPU tick event scheduled @ 900000000
900000000: Event_43: AtomicSimpleCPU tick event scheduled @ 901000000
901000000: Event_43: AtomicSimpleCPU tick event scheduled @ 902000000
902000000: Event_43: AtomicSimpleCPU tick event scheduled @ 903000000
903000000: Event_43: AtomicSimpleCPU tick event scheduled @ 904000000
904000000: Event_43: AtomicSimpleCPU tick event scheduled @ 905000000
905000000: Event_43: AtomicSimpleCPU tick event scheduled @ 906000000
906000000: Event_43: AtomicSimpleCPU tick event scheduled @ 907000000
907000000: Event_43: AtomicSimpleCPU tick event scheduled @ 908000000
908000000: Event_43: AtomicSimpleCPU tick event scheduled @ 909000000
909000000: Event_43: AtomicSimpleCPU tick event scheduled @ 910000000
910000000: Event_43: AtomicSimpleCPU tick event scheduled @ 911000000
911000000: Event_43: AtomicSimpleCPU tick event scheduled @ 912000000
912000000: Event_43: AtomicSimpleCPU tick event scheduled @ 913000000
913000000: Event_43: AtomicSimpleCPU tick event scheduled @ 914000000
914000000: Event_43: AtomicSimpleCPU tick event scheduled @ 915000000
915000000: Event_43: AtomicSimpleCPU tick event scheduled @ 916000000
916000000: Event_43: AtomicSimpleCPU tick event scheduled @ 917000000
917000000: Event_43: AtomicSimpleCPU tick event scheduled @ 918000000
918000000: Event_43: AtomicSimpleCPU tick event scheduled @ 919000000
919000000: Event_43: AtomicSimpleCPU tick event scheduled @ 920000000
920000000: Event_43: AtomicSimpleCPU tick event scheduled @ 921000000
921000000: Event_43: AtomicSimpleCPU tick event scheduled @ 922000000
922000000: Event_43: AtomicSimpleCPU tick event scheduled @ 923000000
923000000: Event_43: AtomicSimpleCPU tick event scheduled @ 924000000
924000000: Event_43: AtomicSimpleCPU tick event scheduled @ 925000000
925000000: Event_43: AtomicSimpleCPU tick event scheduled @ 926000000
926000000: Event_43: AtomicSimpleCPU tick event scheduled @ 927000000
927000000: Event_43: AtomicSimpleCPU tick event scheduled @ 928000000
928000000: Event_43: AtomicSimpleCPU tick event scheduled @ 929000000
929000000: Event_43: AtomicSimpleCPU tick event scheduled @ 930000000
930000000: Event_43: AtomicSimpleCPU tick event scheduled @ 931000000
931000000: Event_43: AtomicSimpleCPU tick event scheduled @ 932000000
932000000: Event_43: AtomicSimpleCPU tick event scheduled @ 933000000
933000000: Event_43: AtomicSimpleCPU tick event scheduled @ 934000000
934000000: Event_43: AtomicSimpleCPU tick event scheduled @ 935000000
935000000: Event_43: AtomicSimpleCPU tick event scheduled @ 936000000
936000000: Event_43: AtomicSimpleCPU tick event scheduled @ 937000000
937000000: Event_43: AtomicSimpleCPU tick event scheduled @ 938000000
938000000: Event_43: AtomicSimpleCPU tick event scheduled @ 939000000
939000000: Event_43: AtomicSimpleCPU tick event scheduled @ 940000000
940000000: Event_43: AtomicSimpleCPU tick event scheduled @ 941000000
941000000: Event_43: AtomicSimpleCPU tick event scheduled @ 942000000
942000000: Event_43: AtomicSimpleCPU tick event scheduled @ 943000000
943000000: Event_43: AtomicSimpleCPU tick event scheduled @ 944000000
944000000: Event_43: AtomicSimpleCPU tick event scheduled @ 945000000
945000000: Event_43: AtomicSimpleCPU tick event scheduled @ 946000000
946000000: Event_43: AtomicSimpleCPU tick event scheduled @ 947000000
947000000: Event_43: AtomicSimpleCPU tick event scheduled @ 948000000
948000000: Event_43: AtomicSimpleCPU tick event scheduled @ 949000000
949000000: Event_43: AtomicSimpleCPU tick event scheduled @ 950000000
950000000: Event_43: AtomicSimpleCPU tick event scheduled @ 951000000
951000000: Event_43: AtomicSimpleCPU tick event scheduled @ 952000000
952000000: Event_43: AtomicSimpleCPU tick event scheduled @ 953000000
953000000: Event_43: AtomicSimpleCPU tick event scheduled @ 954000000
954000000: Event_43: AtomicSimpleCPU tick event scheduled @ 955000000
955000000: Event_43: AtomicSimpleCPU tick event scheduled @ 956000000
956000000: Event_43: AtomicSimpleCPU tick event scheduled @ 957000000
957000000: Event_43: AtomicSimpleCPU tick event scheduled @ 958000000
958000000: Event_43: AtomicSimpleCPU tick event scheduled @ 959000000
959000000: Event_43: AtomicSimpleCPU tick event scheduled @ 960000000
960000000: Event_43: AtomicSimpleCPU tick event scheduled @ 961000000
961000000: Event_43: AtomicSimpleCPU tick event scheduled @ 962000000
962000000: Event_43: AtomicSimpleCPU tick event scheduled @ 963000000
963000000: Event_43: AtomicSimpleCPU tick event scheduled @ 964000000
964000000: Event_43: AtomicSimpleCPU tick event scheduled @ 965000000
965000000: Event_43: AtomicSimpleCPU tick event scheduled @ 966000000
966000000: Event_43: AtomicSimpleCPU tick event scheduled @ 967000000
967000000: Event_43: AtomicSimpleCPU tick event scheduled @ 968000000
968000000: Event_43: AtomicSimpleCPU tick event scheduled @ 969000000
969000000: Event_43: AtomicSimpleCPU tick event scheduled @ 970000000
970000000: Event_43: AtomicSimpleCPU tick event scheduled @ 971000000
971000000: Event_43: AtomicSimpleCPU tick event scheduled @ 972000000
972000000: Event_43: AtomicSimpleCPU tick event scheduled @ 973000000
973000000: Event_43: AtomicSimpleCPU tick event scheduled @ 974000000
974000000: Event_43: AtomicSimpleCPU tick event scheduled @ 975000000
975000000: Event_43: AtomicSimpleCPU tick event scheduled @ 976000000
976000000: Event_43: AtomicSimpleCPU tick event scheduled @ 977000000
977000000: Event_43: AtomicSimpleCPU tick event scheduled @ 978000000
978000000: Event_43: AtomicSimpleCPU tick event scheduled @ 979000000
979000000: Event_43: AtomicSimpleCPU tick event scheduled @ 980000000
980000000: Event_43: AtomicSimpleCPU tick event scheduled @ 981000000
981000000: Event_43: AtomicSimpleCPU tick event scheduled @ 982000000
982000000: Event_43: AtomicSimpleCPU tick event scheduled @ 983000000
983000000: Event_43: AtomicSimpleCPU tick event scheduled @ 984000000
984000000: Event_43: AtomicSimpleCPU tick event scheduled @ 985000000
985000000: Event_43: AtomicSimpleCPU tick event scheduled @ 986000000
986000000: Event_43: AtomicSimpleCPU tick event scheduled @ 987000000
987000000: Event_43: AtomicSimpleCPU tick event scheduled @ 988000000
988000000: Event_43: AtomicSimpleCPU tick event scheduled @ 989000000
989000000: Event_43: AtomicSimpleCPU tick event scheduled @ 990000000
990000000: Event_43: AtomicSimpleCPU tick event scheduled @ 991000000
991000000: Event_43: AtomicSimpleCPU tick event scheduled @ 992000000
992000000: Event_43: AtomicSimpleCPU tick event scheduled @ 993000000
993000000: Event_43: AtomicSimpleCPU tick event scheduled @ 994000000
994000000: Event_43: AtomicSimpleCPU tick event scheduled @ 995000000
995000000: Event_43: AtomicSimpleCPU tick event scheduled @ 996000000
996000000: Event_43: AtomicSimpleCPU tick event scheduled @ 997000000
997000000: Event_43: AtomicSimpleCPU tick event scheduled @ 998000000
998000000: Event_43: AtomicSimpleCPU tick event scheduled @ 999000000
999000000: Event_43: AtomicSimpleCPU tick event scheduled @ 1000000000
1000000000: Event_43: AtomicSimpleCPU tick event scheduled @ 1001000000
1001000000: Event_43: AtomicSimpleCPU tick event scheduled @ 1002000000
1002000000: Event_43: AtomicSimpleCPU tick event scheduled @ 1003000000
1003000000: Event_43: AtomicSimpleCPU tick event scheduled @ 1004000000
1004000000: Event_43: AtomicSimpleCPU tick event scheduled @ 1005000000
1005000000: Event_43: AtomicSimpleCPU tick event scheduled @ 1006000000
1006000000: Event_43: AtomicSimpleCPU tick event scheduled @ 1007000000
1007000000: Event_43: AtomicSimpleCPU tick event scheduled @ 1008000000
1008000000: Event_43: AtomicSimpleCPU tick event scheduled @ 1009000000
1009000000: Event_43: AtomicSimpleCPU tick event scheduled @ 1010000000
1010000000: Event_43: AtomicSimpleCPU tick event scheduled @ 1011000000
1011000000: Event_43: AtomicSimpleCPU tick event scheduled @ 1012000000
1012000000: Event_43: AtomicSimpleCPU tick event scheduled @ 1013000000
1013000000: Event_43: AtomicSimpleCPU tick event scheduled @ 1014000000
1014000000: Event_43: AtomicSimpleCPU tick event scheduled @ 1015000000
1015000000: Event_43: AtomicSimpleCPU tick event scheduled @ 1016000000
1016000000: Event_43: AtomicSimpleCPU tick event scheduled @ 1017000000
1017000000: Event_43: AtomicSimpleCPU tick event scheduled @ 1018000000
1018000000: Event_43: AtomicSimpleCPU tick event scheduled @ 1019000000
1019000000: Event_43: AtomicSimpleCPU tick event scheduled @ 1020000000
1020000000: Event_43: AtomicSimpleCPU tick event scheduled @ 1021000000
1021000000: Event_43: AtomicSimpleCPU tick event scheduled @ 1022000000
1022000000: Event_43: AtomicSimpleCPU tick event scheduled @ 1023000000
1023000000: Event_43: AtomicSimpleCPU tick event scheduled @ 1024000000
1024000000: Event_43: AtomicSimpleCPU tick event scheduled @ 1025000000
1025000000: Event_43: AtomicSimpleCPU tick event scheduled @ 1026000000
1026000000: Event_43: AtomicSimpleCPU tick event scheduled @ 1027000000
1027000000: Event_43: AtomicSimpleCPU tick event scheduled @ 1028000000
1028000000: Event_43: AtomicSimpleCPU tick event scheduled @ 1029000000
1029000000: Event_43: AtomicSimpleCPU tick event scheduled @ 1030000000
1030000000: Event_43: AtomicSimpleCPU tick event scheduled @ 1031000000
1031000000: Event_43: AtomicSimpleCPU tick event scheduled @ 1032000000
1032000000: Event_43: AtomicSimpleCPU tick event scheduled @ 1033000000
1033000000: Event_43: AtomicSimpleCPU tick event scheduled @ 1034000000
1034000000: Event_43: AtomicSimpleCPU tick event scheduled @ 1035000000
1035000000: Event_43: AtomicSimpleCPU tick event scheduled @ 1036000000
1036000000: Event_43: AtomicSimpleCPU tick event scheduled @ 1037000000
1037000000: Event_43: AtomicSimpleCPU tick event scheduled @ 1038000000
1038000000: Event_43: AtomicSimpleCPU tick event scheduled @ 1039000000
1039000000: Event_43: AtomicSimpleCPU tick event scheduled @ 1040000000
1040000000: Event_43: AtomicSimpleCPU tick event scheduled @ 1041000000
1041000000: Event_43: AtomicSimpleCPU tick event scheduled @ 1042000000
1042000000: Event_43: AtomicSimpleCPU tick event scheduled @ 1043000000
1043000000: Event_43: AtomicSimpleCPU tick event scheduled @ 1044000000
1044000000: Event_43: AtomicSimpleCPU tick event scheduled @ 1045000000
1045000000: Event_43: AtomicSimpleCPU tick event scheduled @ 1046000000
1046000000: Event_43: AtomicSimpleCPU tick event scheduled @ 1047000000
1047000000: Event_43: AtomicSimpleCPU tick event scheduled @ 1048000000
1048000000: Event_43: AtomicSimpleCPU tick event scheduled @ 1049000000
1049000000: Event_43: AtomicSimpleCPU tick event scheduled @ 1050000000
1050000000: Event_43: AtomicSimpleCPU tick event scheduled @ 1051000000
1051000000: Event_43: AtomicSimpleCPU tick event scheduled @ 1052000000
1052000000: Event_43: AtomicSimpleCPU tick event scheduled @ 1053000000
1053000000: Event_43: AtomicSimpleCPU tick event scheduled @ 1054000000
1054000000: Event_43: AtomicSimpleCPU tick event scheduled @ 1055000000
1055000000: Event_43: AtomicSimpleCPU tick event scheduled @ 1056000000
1056000000: Event_43: AtomicSimpleCPU tick event scheduled @ 1057000000
1057000000: Event_43: AtomicSimpleCPU tick event scheduled @ 1058000000
1058000000: Event_43: AtomicSimpleCPU tick event scheduled @ 1059000000
1059000000: Event_43: AtomicSimpleCPU tick event scheduled @ 1060000000
1060000000: Event_43: AtomicSimpleCPU tick event scheduled @ 1061000000
1061000000: Event_43: AtomicSimpleCPU tick event scheduled @ 1062000000
1062000000: Event_43: AtomicSimpleCPU tick event scheduled @ 1063000000
1063000000: Event_43: AtomicSimpleCPU tick event scheduled @ 1064000000
1064000000: Event_43: AtomicSimpleCPU tick event scheduled @ 1065000000
1065000000: Event_43: AtomicSimpleCPU tick event scheduled @ 1066000000
1066000000: Event_43: AtomicSimpleCPU tick event scheduled @ 1067000000
1067000000: Event_43: AtomicSimpleCPU tick event scheduled @ 1068000000
1068000000: Event_43: AtomicSimpleCPU tick event scheduled @ 1069000000
1069000000: Event_43: AtomicSimpleCPU tick event scheduled @ 1070000000
1070000000: Event_43: AtomicSimpleCPU tick event scheduled @ 1071000000
1071000000: Event_43: AtomicSimpleCPU tick event scheduled @ 1072000000
1072000000: Event_43: AtomicSimpleCPU tick event scheduled @ 1073000000
1073000000: Event_43: AtomicSimpleCPU tick event scheduled @ 1074000000
1074000000: Event_43: AtomicSimpleCPU tick event scheduled @ 1075000000
1075000000: Event_43: AtomicSimpleCPU tick event scheduled @ 1076000000
1076000000: Event_43: AtomicSimpleCPU tick event scheduled @ 1077000000
1077000000: Event_43: AtomicSimpleCPU tick event scheduled @ 1078000000
1078000000: Event_43: AtomicSimpleCPU tick event scheduled @ 1079000000
1079000000: Event_43: AtomicSimpleCPU tick event scheduled @ 1080000000
1080000000: Event_43: AtomicSimpleCPU tick event scheduled @ 1081000000
1081000000: Event_43: AtomicSimpleCPU tick event scheduled @ 1082000000
1082000000: Event_43: AtomicSimpleCPU tick event scheduled @ 1083000000
1083000000: Event_43: AtomicSimpleCPU tick event scheduled @ 1084000000
1084000000: Event_43: AtomicSimpleCPU tick event scheduled @ 1085000000
1085000000: Event_43: AtomicSimpleCPU tick event scheduled @ 1086000000
1086000000: Event_43: AtomicSimpleCPU tick event scheduled @ 1087000000
1087000000: Event_43: AtomicSimpleCPU tick event scheduled @ 1088000000
1088000000: Event_43: AtomicSimpleCPU tick event scheduled @ 1089000000
1089000000: Event_43: AtomicSimpleCPU tick event scheduled @ 1090000000
1090000000: Event_43: AtomicSimpleCPU tick event scheduled @ 1091000000
1091000000: Event_43: AtomicSimpleCPU tick event scheduled @ 1092000000
1092000000: Event_43: AtomicSimpleCPU tick event scheduled @ 1093000000
1093000000: Event_43: AtomicSimpleCPU tick event scheduled @ 1094000000
1094000000: Event_43: AtomicSimpleCPU tick event scheduled @ 1095000000
1095000000: Event_43: AtomicSimpleCPU tick event scheduled @ 1096000000
1096000000: Event_43: AtomicSimpleCPU tick event scheduled @ 1097000000
1097000000: Event_43: AtomicSimpleCPU tick event scheduled @ 1098000000
1098000000: Event_43: AtomicSimpleCPU tick event scheduled @ 1099000000
1099000000: Event_43: AtomicSimpleCPU tick event scheduled @ 1100000000
1100000000: Event_43: AtomicSimpleCPU tick event scheduled @ 1101000000
1101000000: Event_43: AtomicSimpleCPU tick event scheduled @ 1102000000
1102000000: Event_43: AtomicSimpleCPU tick event scheduled @ 1103000000
1103000000: Event_43: AtomicSimpleCPU tick event scheduled @ 1104000000
1104000000: Event_43: AtomicSimpleCPU tick event scheduled @ 1105000000
1105000000: Event_43: AtomicSimpleCPU tick event scheduled @ 1106000000
1106000000: Event_43: AtomicSimpleCPU tick event scheduled @ 1107000000
1107000000: Event_43: AtomicSimpleCPU tick event scheduled @ 1108000000
1108000000: Event_43: AtomicSimpleCPU tick event scheduled @ 1109000000
1109000000: Event_43: AtomicSimpleCPU tick event scheduled @ 1110000000
1110000000: Event_43: AtomicSimpleCPU tick event scheduled @ 1111000000
1111000000: Event_43: AtomicSimpleCPU tick event scheduled @ 1112000000
1112000000: Event_43: AtomicSimpleCPU tick event scheduled @ 1113000000
1113000000: Event_43: AtomicSimpleCPU tick event scheduled @ 1114000000
1114000000: Event_43: AtomicSimpleCPU tick event scheduled @ 1115000000
1115000000: Event_43: AtomicSimpleCPU tick event scheduled @ 1116000000
1116000000: Event_43: AtomicSimpleCPU tick event scheduled @ 1117000000
1117000000: Event_43: AtomicSimpleCPU tick event scheduled @ 1118000000
1118000000: Event_43: AtomicSimpleCPU tick event scheduled @ 1119000000
1119000000: Event_43: AtomicSimpleCPU tick event scheduled @ 1120000000
1120000000: Event_43: AtomicSimpleCPU tick event scheduled @ 1121000000
1121000000: Event_43: AtomicSimpleCPU tick event scheduled @ 1122000000
1122000000: Event_43: AtomicSimpleCPU tick event scheduled @ 1123000000
1123000000: Event_43: AtomicSimpleCPU tick event scheduled @ 1124000000
1124000000: Event_43: AtomicSimpleCPU tick event scheduled @ 1125000000
1125000000: Event_43: AtomicSimpleCPU tick event scheduled @ 1126000000
1126000000: Event_43: AtomicSimpleCPU tick event scheduled @ 1127000000
1127000000: Event_43: AtomicSimpleCPU tick event scheduled @ 1128000000
1128000000: Event_43: AtomicSimpleCPU tick event scheduled @ 1129000000
1129000000: Event_43: AtomicSimpleCPU tick event scheduled @ 1130000000
1130000000: Event_43: AtomicSimpleCPU tick event scheduled @ 1131000000
1131000000: Event_43: AtomicSimpleCPU tick event scheduled @ 1132000000
1132000000: Event_43: AtomicSimpleCPU tick event scheduled @ 1133000000
[...]
5554000000: Event_43: AtomicSimpleCPU tick event scheduled @ 5555000000
5555000000: Event_43: AtomicSimpleCPU tick event scheduled @ 5556000000
5556000000: Event_43: AtomicSimpleCPU tick event scheduled @ 5557000000
5557000000: Event_43: AtomicSimpleCPU tick event scheduled @ 5558000000
5558000000: Event_43: AtomicSimpleCPU tick event scheduled @ 5559000000
5559000000: Event_43: AtomicSimpleCPU tick event scheduled @ 5560000000
5560000000: Event_43: AtomicSimpleCPU tick event scheduled @ 5561000000
5561000000: Event_43: AtomicSimpleCPU tick event scheduled @ 5562000000
5562000000: Event_43: AtomicSimpleCPU tick event scheduled @ 5563000000
5563000000: Event_43: AtomicSimpleCPU tick event scheduled @ 5564000000
5564000000: Event_43: AtomicSimpleCPU tick event scheduled @ 5565000000
5565000000: Event_43: AtomicSimpleCPU tick event scheduled @ 5566000000
5566000000: Event_43: AtomicSimpleCPU tick event scheduled @ 5567000000
5567000000: Event_43: AtomicSimpleCPU tick event scheduled @ 5568000000
5568000000: Event_43: AtomicSimpleCPU tick event scheduled @ 5569000000
5569000000: Event_43: AtomicSimpleCPU tick event scheduled @ 5570000000
5570000000: Event_43: AtomicSimpleCPU tick event scheduled @ 5571000000
5571000000: Event_43: AtomicSimpleCPU tick event scheduled @ 5572000000
5572000000: Event_43: AtomicSimpleCPU tick event scheduled @ 5573000000
5573000000: Event_43: AtomicSimpleCPU tick event scheduled @ 5574000000
5574000000: Event_43: AtomicSimpleCPU tick event scheduled @ 5575000000
5575000000: Event_43: AtomicSimpleCPU tick event scheduled @ 5576000000
5576000000: Event_43: AtomicSimpleCPU tick event scheduled @ 5577000000
5577000000: Event_43: AtomicSimpleCPU tick event scheduled @ 5578000000
5578000000: Event_43: AtomicSimpleCPU tick event scheduled @ 5579000000
5579000000: Event_43: AtomicSimpleCPU tick event scheduled @ 5580000000
5580000000: Event_43: AtomicSimpleCPU tick event scheduled @ 5581000000
5581000000: Event_43: AtomicSimpleCPU tick event scheduled @ 5582000000
5582000000: Event_43: AtomicSimpleCPU tick event scheduled @ 5583000000
5583000000: Event_43: AtomicSimpleCPU tick event scheduled @ 5584000000
5584000000: Event_43: AtomicSimpleCPU tick event scheduled @ 5585000000
5585000000: Event_43: AtomicSimpleCPU tick event scheduled @ 5586000000
5586000000: Event_43: AtomicSimpleCPU tick event scheduled @ 5587000000
5587000000: Event_43: AtomicSimpleCPU tick event scheduled @ 5588000000
5588000000: Event_43: AtomicSimpleCPU tick event scheduled @ 5589000000
5589000000: Event_43: AtomicSimpleCPU tick event scheduled @ 5590000000
5590000000: Event_43: AtomicSimpleCPU tick event scheduled @ 5591000000
5591000000: Event_43: AtomicSimpleCPU tick event scheduled @ 5592000000
5592000000: Event_43: AtomicSimpleCPU tick event scheduled @ 5593000000
5593000000: Event_43: AtomicSimpleCPU tick event scheduled @ 5594000000
5594000000: Event_43: AtomicSimpleCPU tick event scheduled @ 5595000000
5595000000: Event_43: AtomicSimpleCPU tick event scheduled @ 5596000000
5596000000: Event_43: AtomicSimpleCPU tick event scheduled @ 5597000000
5597000000: Event_43: AtomicSimpleCPU tick event scheduled @ 5598000000
5598000000: Event_43: AtomicSimpleCPU tick event scheduled @ 5599000000
5599000000: Event_43: AtomicSimpleCPU tick event scheduled @ 5600000000
5600000000: Event_43: AtomicSimpleCPU tick event scheduled @ 5601000000
5601000000: Event_43: AtomicSimpleCPU tick event scheduled @ 5602000000
5602000000: Event_43: AtomicSimpleCPU tick event scheduled @ 5603000000
5603000000: Event_43: AtomicSimpleCPU tick event scheduled @ 5604000000
5604000000: Event_43: AtomicSimpleCPU tick event scheduled @ 5605000000
5605000000: Event_43: AtomicSimpleCPU tick event scheduled @ 5606000000
5606000000: Event_43: AtomicSimpleCPU tick event scheduled @ 5607000000
5607000000: Event_43: AtomicSimpleCPU tick event scheduled @ 5608000000
5608000000: Event_43: AtomicSimpleCPU tick event scheduled @ 5609000000
5609000000: Event_43: AtomicSimpleCPU tick event scheduled @ 5610000000
5610000000: Event_43: AtomicSimpleCPU tick event scheduled @ 5611000000
5611000000: Event_43: AtomicSimpleCPU tick event scheduled @ 5612000000
5612000000: Event_43: AtomicSimpleCPU tick event scheduled @ 5613000000
5613000000: Event_43: AtomicSimpleCPU tick event scheduled @ 5614000000
5614000000: Event_43: AtomicSimpleCPU tick event scheduled @ 5615000000
5615000000: Event_43: AtomicSimpleCPU tick event scheduled @ 5616000000
5616000000: Event_43: AtomicSimpleCPU tick event scheduled @ 5617000000
5617000000: Event_43: AtomicSimpleCPU tick event scheduled @ 5618000000
5618000000: Event_43: AtomicSimpleCPU tick event scheduled @ 5619000000
5619000000: Event_43: AtomicSimpleCPU tick event scheduled @ 5620000000
5620000000: Event_43: AtomicSimpleCPU tick event scheduled @ 5621000000
5621000000: Event_43: AtomicSimpleCPU tick event scheduled @ 5622000000
5622000000: Event_43: AtomicSimpleCPU tick event scheduled @ 5623000000
5623000000: Event_43: AtomicSimpleCPU tick event scheduled @ 5624000000
5624000000: Event_43: AtomicSimpleCPU tick event scheduled @ 5625000000
5625000000: Event_43: AtomicSimpleCPU tick event scheduled @ 5626000000
5626000000: Event_43: AtomicSimpleCPU tick event scheduled @ 5627000000
5627000000: Event_43: AtomicSimpleCPU tick event scheduled @ 5628000000
5628000000: Event_43: AtomicSimpleCPU tick event scheduled @ 5629000000
5629000000: Event_43: AtomicSimpleCPU tick event scheduled @ 5630000000
5630000000: Event_43: AtomicSimpleCPU tick event scheduled @ 5631000000
5631000000: Event_43: AtomicSimpleCPU tick event scheduled @ 5632000000
5632000000: Event_43: AtomicSimpleCPU tick event scheduled @ 5633000000
5633000000: Event_43: AtomicSimpleCPU tick event scheduled @ 5634000000
5634000000: Event_43: AtomicSimpleCPU tick event scheduled @ 5635000000
5635000000: Event_43: AtomicSimpleCPU tick event scheduled @ 5636000000
5636000000: Event_43: AtomicSimpleCPU tick event scheduled @ 5637000000
5637000000: Event_43: AtomicSimpleCPU tick event scheduled @ 5638000000
5638000000: Event_43: AtomicSimpleCPU tick event scheduled @ 5639000000
5639000000: Event_43: AtomicSimpleCPU tick event scheduled @ 5640000000
5640000000: Event_43: AtomicSimpleCPU tick event scheduled @ 5641000000
5641000000: Event_43: AtomicSimpleCPU tick event scheduled @ 5642000000
5642000000: Event_43: AtomicSimpleCPU tick event scheduled @ 5643000000
5643000000: Event_43: AtomicSimpleCPU tick event scheduled @ 5644000000
5644000000: Event_43: AtomicSimpleCPU tick event scheduled @ 5645000000
5645000000: Event_43: AtomicSimpleCPU tick event scheduled @ 5646000000
5646000000: Event_43: AtomicSimpleCPU tick event scheduled @ 5647000000
5647000000: Event_43: AtomicSimpleCPU tick event scheduled @ 5648000000
5648000000: Event_43: AtomicSimpleCPU tick event scheduled @ 5649000000
5649000000: Event_43: AtomicSimpleCPU tick event scheduled @ 5650000000
5650000000: Event_43: AtomicSimpleCPU tick event scheduled @ 5651000000
5651000000: Event_43: AtomicSimpleCPU tick event scheduled @ 5652000000
5652000000: Event_43: AtomicSimpleCPU tick event scheduled @ 5653000000
5653000000: Event_43: AtomicSimpleCPU tick event scheduled @ 5654000000
5654000000: Event_43: AtomicSimpleCPU tick event scheduled @ 5655000000
5655000000: Event_43: AtomicSimpleCPU tick event scheduled @ 5656000000
5656000000: Event_43: AtomicSimpleCPU tick event scheduled @ 5657000000
5657000000: Event_43: AtomicSimpleCPU tick event scheduled @ 5658000000
5658000000: Event_43: AtomicSimpleCPU tick event scheduled @ 5659000000
5659000000: Event_43: AtomicSimpleCPU tick event scheduled @ 5660000000
5660000000: Event_43: AtomicSimpleCPU tick event scheduled @ 5661000000
5661000000: Event_43: AtomicSimpleCPU tick event scheduled @ 5662000000
5662000000: Event_43: AtomicSimpleCPU tick event scheduled @ 5663000000
5663000000: Event_43: AtomicSimpleCPU tick event scheduled @ 5664000000
5664000000: Event_43: AtomicSimpleCPU tick event scheduled @ 5665000000
5665000000: Event_43: AtomicSimpleCPU tick event scheduled @ 5666000000
5666000000: Event_43: AtomicSimpleCPU tick event scheduled @ 5667000000
5667000000: Event_43: AtomicSimpleCPU tick event scheduled @ 5668000000
5668000000: Event_43: AtomicSimpleCPU tick event scheduled @ 5669000000
5669000000: Event_43: AtomicSimpleCPU tick event scheduled @ 5670000000
5670000000: Event_43: AtomicSimpleCPU tick event scheduled @ 5671000000
5671000000: Event_43: AtomicSimpleCPU tick event scheduled @ 5672000000
5672000000: Event_43: AtomicSimpleCPU tick event scheduled @ 5673000000
5673000000: Event_43: AtomicSimpleCPU tick event scheduled @ 5674000000
5674000000: Event_43: AtomicSimpleCPU tick event scheduled @ 5675000000
5675000000: Event_43: AtomicSimpleCPU tick event scheduled @ 5676000000
5676000000: Event_43: AtomicSimpleCPU tick event scheduled @ 5677000000
5677000000: Event_43: AtomicSimpleCPU tick event scheduled @ 5678000000
5678000000: Event_43: AtomicSimpleCPU tick event scheduled @ 5679000000
5679000000: Event_43: AtomicSimpleCPU tick event scheduled @ 5680000000
5680000000: Event_43: AtomicSimpleCPU tick event scheduled @ 5681000000
5681000000: Event_43: AtomicSimpleCPU tick event scheduled @ 5682000000
5682000000: Event_43: AtomicSimpleCPU tick event scheduled @ 5683000000
5683000000: Event_43: AtomicSimpleCPU tick event scheduled @ 5684000000
5684000000: Event_43: AtomicSimpleCPU tick event scheduled @ 5685000000
5685000000: Event_43: AtomicSimpleCPU tick event scheduled @ 5686000000
5686000000: Event_43: AtomicSimpleCPU tick event scheduled @ 5687000000
5687000000: Event_43: AtomicSimpleCPU tick event scheduled @ 5688000000
5688000000: Event_43: AtomicSimpleCPU tick event scheduled @ 5689000000
5689000000: Event_43: AtomicSimpleCPU tick event scheduled @ 5690000000
5690000000: Event_43: AtomicSimpleCPU tick event scheduled @ 5691000000
5691000000: Event_43: AtomicSimpleCPU tick event scheduled @ 5692000000
5692000000: Event_43: AtomicSimpleCPU tick event scheduled @ 5693000000
5693000000: Event_43: AtomicSimpleCPU tick event scheduled @ 5694000000
5694000000: Event_43: AtomicSimpleCPU tick event scheduled @ 5695000000
5695000000: Event_43: AtomicSimpleCPU tick event scheduled @ 5696000000
5696000000: Event_43: AtomicSimpleCPU tick event scheduled @ 5697000000
5697000000: Event_43: AtomicSimpleCPU tick event scheduled @ 5698000000
5698000000: Event_43: AtomicSimpleCPU tick event scheduled @ 5699000000
5699000000: Event_43: AtomicSimpleCPU tick event scheduled @ 5700000000
5700000000: Event_43: AtomicSimpleCPU tick event scheduled @ 5701000000
5701000000: Event_43: AtomicSimpleCPU tick event scheduled @ 5702000000
5702000000: Event_43: AtomicSimpleCPU tick event scheduled @ 5703000000
5703000000: Event_43: AtomicSimpleCPU tick event scheduled @ 5704000000
5704000000: Event_43: AtomicSimpleCPU tick event scheduled @ 5705000000
5705000000: Event_43: AtomicSimpleCPU tick event scheduled @ 5706000000
5706000000: Event_43: AtomicSimpleCPU tick event scheduled @ 5707000000
5707000000: Event_43: AtomicSimpleCPU tick event scheduled @ 5708000000
5708000000: Event_43: AtomicSimpleCPU tick event scheduled @ 5709000000
5709000000: Event_43: AtomicSimpleCPU tick event scheduled @ 5710000000
5710000000: Event_43: AtomicSimpleCPU tick event scheduled @ 5711000000
5711000000: Event_43: AtomicSimpleCPU tick event scheduled @ 5712000000
5712000000: Event_43: AtomicSimpleCPU tick event scheduled @ 5713000000
5713000000: Event_43: AtomicSimpleCPU tick event scheduled @ 5714000000
5714000000: Event_43: AtomicSimpleCPU tick event scheduled @ 5715000000
5715000000: Event_43: AtomicSimpleCPU tick event scheduled @ 5716000000
5716000000: Event_43: AtomicSimpleCPU tick event scheduled @ 5717000000
5717000000: Event_43: AtomicSimpleCPU tick event scheduled @ 5718000000
5718000000: Event_43: AtomicSimpleCPU tick event scheduled @ 5719000000
5719000000: Event_43: AtomicSimpleCPU tick event scheduled @ 5720000000
5720000000: Event_43: AtomicSimpleCPU tick event scheduled @ 5721000000
5721000000: Event_43: AtomicSimpleCPU tick event scheduled @ 5722000000
5722000000: Event_43: AtomicSimpleCPU tick event scheduled @ 5723000000
5723000000: Event_43: AtomicSimpleCPU tick event scheduled @ 5724000000
5724000000: Event_43: AtomicSimpleCPU tick event scheduled @ 5725000000
5725000000: Event_43: AtomicSimpleCPU tick event scheduled @ 5726000000
5726000000: Event_43: AtomicSimpleCPU tick event scheduled @ 5727000000
5727000000: Event_43: AtomicSimpleCPU tick event scheduled @ 5728000000
5728000000: Event_43: AtomicSimpleCPU tick event scheduled @ 5729000000
5729000000: Event_43: AtomicSimpleCPU tick event scheduled @ 5730000000
5730000000: Event_43: AtomicSimpleCPU tick event scheduled @ 5731000000
5731000000: Event_43: AtomicSimpleCPU tick event scheduled @ 5732000000
5732000000: Event_43: AtomicSimpleCPU tick event scheduled @ 5733000000
5733000000: Event_43: AtomicSimpleCPU tick event scheduled @ 5734000000
5734000000: Event_43: AtomicSimpleCPU tick event scheduled @ 5735000000
5735000000: Event_43: AtomicSimpleCPU tick event scheduled @ 5736000000
5736000000: Event_43: AtomicSimpleCPU tick event scheduled @ 5737000000
5737000000: Event_43: AtomicSimpleCPU tick event scheduled @ 5738000000
5738000000: Event_43: AtomicSimpleCPU tick event scheduled @ 5739000000
5739000000: Event_43: AtomicSimpleCPU tick event scheduled @ 5740000000
5740000000: Event_43: AtomicSimpleCPU tick event scheduled @ 5741000000
5741000000: Event_43: AtomicSimpleCPU tick event scheduled @ 5742000000
5742000000: Event_43: AtomicSimpleCPU tick event scheduled @ 5743000000
5743000000: Event_43: AtomicSimpleCPU tick event scheduled @ 5744000000
5744000000: Event_43: AtomicSimpleCPU tick event scheduled @ 5745000000
5745000000: Event_43: AtomicSimpleCPU tick event scheduled @ 5746000000
5746000000: Event_43: AtomicSimpleCPU tick event scheduled @ 5747000000
5747000000: Event_43: AtomicSimpleCPU tick event scheduled @ 5748000000
5748000000: Event_43: AtomicSimpleCPU tick event scheduled @ 5749000000
5749000000: Event_43: AtomicSimpleCPU tick event scheduled @ 5750000000
5750000000: Event_43: AtomicSimpleCPU tick event scheduled @ 5751000000
5751000000: Event_43: AtomicSimpleCPU tick event scheduled @ 5752000000
5752000000: Event_43: AtomicSimpleCPU tick event scheduled @ 5753000000
5753000000: Event_43: AtomicSimpleCPU tick event scheduled @ 5754000000
5754000000: Event_43: AtomicSimpleCPU tick event scheduled @ 5755000000
5755000000: Event_43: AtomicSimpleCPU tick event scheduled @ 5756000000
5756000000: Event_43: AtomicSimpleCPU tick event scheduled @ 5757000000
5757000000: Event_43: AtomicSimpleCPU tick event scheduled @ 5758000000
5758000000: Event_43: AtomicSimpleCPU tick event scheduled @ 5759000000
5759000000: Event_43: AtomicSimpleCPU tick event scheduled @ 5760000000
5760000000: Event_43: AtomicSimpleCPU tick event scheduled @ 5761000000
5761000000: Event_43: AtomicSimpleCPU tick event scheduled @ 5762000000
5762000000: Event_43: AtomicSimpleCPU tick event scheduled @ 5763000000
5763000000: Event_43: AtomicSimpleCPU tick event scheduled @ 5764000000
5764000000: Event_43: AtomicSimpleCPU tick event scheduled @ 5765000000
5765000000: Event_43: AtomicSimpleCPU tick event scheduled @ 5766000000
5766000000: Event_43: AtomicSimpleCPU tick event scheduled @ 5767000000
5767000000: Event_43: AtomicSimpleCPU tick event scheduled @ 5768000000
5768000000: Event_43: AtomicSimpleCPU tick event scheduled @ 5769000000
5769000000: Event_43: AtomicSimpleCPU tick event scheduled @ 5770000000
5770000000: Event_43: AtomicSimpleCPU tick event scheduled @ 5771000000
5771000000: Event_43: AtomicSimpleCPU tick event scheduled @ 5772000000
5772000000: Event_43: AtomicSimpleCPU tick event scheduled @ 5773000000
5773000000: Event_43: AtomicSimpleCPU tick event scheduled @ 5774000000
5774000000: Event_43: AtomicSimpleCPU tick event scheduled @ 5775000000
5775000000: Event_43: AtomicSimpleCPU tick event scheduled @ 5776000000
5776000000: Event_43: AtomicSimpleCPU tick event scheduled @ 5777000000
5777000000: Event_43: AtomicSimpleCPU tick event scheduled @ 5778000000
5778000000: Event_43: AtomicSimpleCPU tick event scheduled @ 5779000000
5779000000: Event_43: AtomicSimpleCPU tick event scheduled @ 5780000000
5780000000: Event_43: AtomicSimpleCPU tick event scheduled @ 5781000000
5781000000: Event_43: AtomicSimpleCPU tick event scheduled @ 5782000000
5782000000: Event_43: AtomicSimpleCPU tick event scheduled @ 5783000000
5783000000: Event_43: AtomicSimpleCPU tick event scheduled @ 5784000000
5784000000: Event_43: AtomicSimpleCPU tick event scheduled @ 5785000000
5785000000: Event_43: AtomicSimpleCPU tick event scheduled @ 5786000000
5786000000: Event_43: AtomicSimpleCPU tick event scheduled @ 5787000000
5787000000: Event_43: AtomicSimpleCPU tick event scheduled @ 5788000000
5788000000: Event_43: AtomicSimpleCPU tick event scheduled @ 5789000000
5789000000: Event_43: AtomicSimpleCPU tick event scheduled @ 5790000000
5790000000: Event_43: AtomicSimpleCPU tick event scheduled @ 5791000000
5791000000: Event_43: AtomicSimpleCPU tick event scheduled @ 5792000000
5792000000: Event_43: AtomicSimpleCPU tick event scheduled @ 5793000000
5793000000: Event_43: AtomicSimpleCPU tick event scheduled @ 5794000000
5794000000: Event_43: AtomicSimpleCPU tick event scheduled @ 5795000000
5795000000: Event_43: AtomicSimpleCPU tick event scheduled @ 5796000000
5796000000: Event_43: AtomicSimpleCPU tick event scheduled @ 5797000000
5797000000: Event_43: AtomicSimpleCPU tick event scheduled @ 5798000000
5798000000: Event_43: AtomicSimpleCPU tick event scheduled @ 5799000000
5799000000: Event_43: AtomicSimpleCPU tick event scheduled @ 5800000000
5800000000: Event_43: AtomicSimpleCPU tick event scheduled @ 5801000000
5801000000: Event_43: AtomicSimpleCPU tick event scheduled @ 5802000000
5802000000: Event_43: AtomicSimpleCPU tick event scheduled @ 5803000000
5803000000: Event_43: AtomicSimpleCPU tick event scheduled @ 5804000000
5804000000: Event_43: AtomicSimpleCPU tick event scheduled @ 5805000000
5805000000: Event_43: AtomicSimpleCPU tick event scheduled @ 5806000000
5806000000: Event_43: AtomicSimpleCPU tick event scheduled @ 5807000000
5807000000: Event_43: AtomicSimpleCPU tick event scheduled @ 5808000000
5808000000: Event_43: AtomicSimpleCPU tick event scheduled @ 5809000000
5809000000: Event_43: AtomicSimpleCPU tick event scheduled @ 5810000000
5810000000: Event_43: AtomicSimpleCPU tick event scheduled @ 5811000000
5811000000: Event_43: AtomicSimpleCPU tick event scheduled @ 5812000000
5812000000: Event_43: AtomicSimpleCPU tick event scheduled @ 5813000000
5813000000: Event_43: AtomicSimpleCPU tick event scheduled @ 5814000000
5814000000: Event_43: AtomicSimpleCPU tick event scheduled @ 5815000000
5815000000: Event_43: AtomicSimpleCPU tick event scheduled @ 5816000000
5816000000: Event_43: AtomicSimpleCPU tick event scheduled @ 5817000000
5817000000: Event_43: AtomicSimpleCPU tick event scheduled @ 5818000000
5818000000: Event_43: AtomicSimpleCPU tick event scheduled @ 5819000000
5819000000: Event_43: AtomicSimpleCPU tick event scheduled @ 5820000000
5820000000: Event_43: AtomicSimpleCPU tick event scheduled @ 5821000000
5821000000: Event_43: AtomicSimpleCPU tick event scheduled @ 5822000000
5822000000: Event_43: AtomicSimpleCPU tick event scheduled @ 5823000000
5823000000: Event_43: AtomicSimpleCPU tick event scheduled @ 5824000000
5824000000: Event_43: AtomicSimpleCPU tick event scheduled @ 5825000000
5825000000: Event_43: AtomicSimpleCPU tick event scheduled @ 5826000000
5826000000: Event_43: AtomicSimpleCPU tick event scheduled @ 5827000000
5827000000: Event_43: AtomicSimpleCPU tick event scheduled @ 5828000000
5828000000: Event_43: AtomicSimpleCPU tick event scheduled @ 5829000000
5829000000: Event_43: AtomicSimpleCPU tick event scheduled @ 5830000000
5830000000: Event_52: generic event scheduled @ 5830000000
Exiting @ tick 5830000000 because target called exit()
